
     RDKit          3D

 51 54  0  0  0  0  0  0  0  0999 V2000
   -4.0717   -1.1739   -2.1141 C   0  0  0  0  0  0  0  0  0  0  0  0
   -2.7096   -1.1685   -1.4231 C   0  0  0  0  0  0  0  0  0  0  0  0
   -2.6185   -0.0069   -0.5657 C   0  0  2  0  0  0  0  0  0  0  0  0
   -2.7141    1.4010   -1.1037 C   0  0  0  0  0  0  0  0  0  0  0  0
   -1.3499    2.0005   -0.7037 C   0  0  0  0  0  0  0  0  0  0  0  0
   -0.5001    0.7251   -0.5540 C   0  0  2  0  0  0  0  0  0  0  0  0
   -1.4663    0.0309    0.4378 C   0  0  2  0  0  0  0  0  0  0  0  0
   -0.8894   -1.3572    0.5799 C   0  0  0  0  0  0  0  0  0  0  0  0
    0.4061   -1.5380    0.4922 C   0  0  0  0  0  0  0  0  0  0  0  0
    1.3521   -0.4497    0.2653 C   0  0  0  0  0  0  0  0  0  0  0  0
    2.6496   -0.5910    0.1486 C   0  0  0  0  0  0  0  0  0  0  0  0
    3.2703   -2.0103    0.2254 C   0  0  0  0  0  0  0  0  0  0  0  0
    4.4379   -1.9459   -0.7312 C   0  0  0  0  0  0  0  0  0  0  0  0
    5.4392   -0.8874   -0.3494 C   0  0  0  0  0  0  0  0  0  0  0  0
    6.6516   -1.1299   -0.2600 O   0  0  0  0  0  0  0  0  0  0  0  0
    4.8656    0.4132   -0.1055 C   0  0  0  0  0  0  0  0  0  0  0  0
    3.5646    0.5187    0.1090 C   0  0  0  0  0  0  0  0  0  0  0  0
    2.9968    1.9304    0.2409 C   0  0  0  0  0  0  0  0  0  0  0  0
    1.6998    1.9069   -0.4879 C   0  0  0  0  0  0  0  0  0  0  0  0
    0.7784    0.9156    0.1467 C   0  0  1  0  0  0  0  0  0  0  0  0
   -1.6893    0.6224    1.7304 C   0  0  0  0  0  0  0  0  0  0  0  0
   -2.8016   -0.0981    2.5010 C   0  0  0  0  0  0  0  0  0  0  0  0
   -3.8559   -0.0761    0.2470 O   0  0  0  0  0  0  0  0  0  0  0  0
   -4.3458   -0.1026   -2.3922 H   0  0  0  0  0  0  0  0  0  0  0  0
   -4.8291   -1.4868   -1.3496 H   0  0  0  0  0  0  0  0  0  0  0  0
   -4.1294   -1.8007   -2.9743 H   0  0  0  0  0  0  0  0  0  0  0  0
   -2.7733   -2.0885   -0.7482 H   0  0  0  0  0  0  0  0  0  0  0  0
   -1.9176   -1.3248   -2.1866 H   0  0  0  0  0  0  0  0  0  0  0  0
   -2.6466    1.3751   -2.2369 H   0  0  0  0  0  0  0  0  0  0  0  0
   -3.5407    2.0196   -0.7735 H   0  0  0  0  0  0  0  0  0  0  0  0
   -0.9501    2.6175   -1.5161 H   0  0  0  0  0  0  0  0  0  0  0  0
   -1.4722    2.5182    0.2107 H   0  0  0  0  0  0  0  0  0  0  0  0
   -0.4458    0.1582   -1.4377 H   0  0  0  0  0  0  0  0  0  0  0  0
   -1.5040   -2.2055    0.7440 H   0  0  0  0  0  0  0  0  0  0  0  0
    0.8133   -2.5150    0.5826 H   0  0  0  0  0  0  0  0  0  0  0  0
    2.5952   -2.7603   -0.1750 H   0  0  0  0  0  0  0  0  0  0  0  0
    3.5234   -2.2858    1.2456 H   0  0  0  0  0  0  0  0  0  0  0  0
    4.9015   -2.9319   -0.9285 H   0  0  0  0  0  0  0  0  0  0  0  0
    3.9546   -1.5555   -1.7005 H   0  0  0  0  0  0  0  0  0  0  0  0
    5.4783    1.3354   -0.0978 H   0  0  0  0  0  0  0  0  0  0  0  0
    2.7623    2.0287    1.3617 H   0  0  0  0  0  0  0  0  0  0  0  0
    3.6919    2.6663   -0.0265 H   0  0  0  0  0  0  0  0  0  0  0  0
    1.8043    1.8538   -1.5650 H   0  0  0  0  0  0  0  0  0  0  0  0
    1.2301    2.9472   -0.3022 H   0  0  0  0  0  0  0  0  0  0  0  0
    0.6170    1.3257    1.2045 H   0  0  0  0  0  0  0  0  0  0  0  0
   -0.7904    0.4174    2.3793 H   0  0  0  0  0  0  0  0  0  0  0  0
   -1.9084    1.7231    1.8124 H   0  0  0  0  0  0  0  0  0  0  0  0
   -3.7326    0.5672    2.5158 H   0  0  0  0  0  0  0  0  0  0  0  0
   -2.5449   -0.2197    3.5709 H   0  0  0  0  0  0  0  0  0  0  0  0
   -3.0353   -1.0937    2.1092 H   0  0  0  0  0  0  0  0  0  0  0  0
   -4.2514    0.7855    0.2626 H   0  0  0  0  0  0  0  0  0  0  0  0
  1  2  1  0
  2  3  1  0
  3  4  1  0
  4  5  1  0
  5  6  1  0
  6  7  1  0
  7  8  1  0
  8  9  2  0
  9 10  1  0
 10 11  2  0
 11 12  1  0
 12 13  1  0
 13 14  1  0
 14 15  2  0
 14 16  1  0
 16 17  2  0
 17 18  1  0
 18 19  1  0
 19 20  1  0
  7 21  1  1
 21 22  1  0
  3 23  1  1
  7  3  1  0
 20  6  1  0
 20 10  1  0
 17 11  1  0
  1 24  1  0
  1 25  1  0
  1 26  1  0
  2 27  1  0
  2 28  1  0
  4 29  1  0
  4 30  1  0
  5 31  1  0
  5 32  1  0
  6 33  1  6
  8 34  1  0
  9 35  1  0
 12 36  1  0
 12 37  1  0
 13 38  1  0
 13 39  1  0
 16 40  1  0
 18 41  1  0
 18 42  1  0
 19 43  1  0
 19 44  1  0
 20 45  1  1
 21 46  1  0
 21 47  1  0
 22 48  1  0
 22 49  1  0
 22 50  1  0
 23 51  1  0
M  END
$$$$
