
     RDKit          3D

 43 44  0  0  0  0  0  0  0  0999 V2000
    0.6481    2.2985   -1.1298 C   0  0  0  0  0  0  0  0  0  0  0  0
    0.7308    1.6065    0.2267 C   0  0  2  0  0  0  0  0  0  0  0  0
    1.6516    0.4222    0.0914 C   0  0  0  0  0  0  0  0  0  0  0  0
    3.2734    0.9332   -0.4103 S   0  0  0  0  0  6  0  0  0  0  0  0
    3.2116    1.6400   -1.7332 O   0  0  0  0  0  0  0  0  0  0  0  0
    3.7852    1.9096    0.6194 O   0  0  0  0  0  0  0  0  0  0  0  0
    4.3321   -0.4505   -0.5634 C   0  0  0  0  0  0  0  0  0  0  0  0
    5.0929   -0.9244    0.4928 C   0  0  0  0  0  0  0  0  0  0  0  0
    5.9210   -2.0257    0.3303 C   0  0  0  0  0  0  0  0  0  0  0  0
    6.0176   -2.6849   -0.8778 C   0  0  0  0  0  0  0  0  0  0  0  0
    5.2642   -2.2185   -1.9302 C   0  0  0  0  0  0  0  0  0  0  0  0
    4.4448   -1.1239   -1.7585 C   0  0  0  0  0  0  0  0  0  0  0  0
    6.8426   -3.7744   -1.0228 F   0  0  0  0  0  0  0  0  0  0  0  0
   -0.6380    1.2259    0.6016 C   0  0  0  0  0  0  0  0  0  0  0  0
   -1.1521    1.7264    1.6492 O   0  0  0  0  0  0  0  0  0  0  0  0
   -1.4455    0.3259   -0.1289 N   0  0  0  0  0  0  0  0  0  0  0  0
   -2.7758   -0.0303    0.2549 C   0  0  0  0  0  0  0  0  0  0  0  0
   -2.8981   -1.1243    1.0875 C   0  0  0  0  0  0  0  0  0  0  0  0
   -4.1337   -1.5589    1.5217 C   0  0  0  0  0  0  0  0  0  0  0  0
   -5.2709   -0.8873    1.1163 C   0  0  0  0  0  0  0  0  0  0  0  0
   -5.1165    0.2085    0.2795 C   0  0  0  0  0  0  0  0  0  0  0  0
   -3.8827    0.6463   -0.1570 C   0  0  0  0  0  0  0  0  0  0  0  0
   -6.3557    0.9109   -0.1402 C   0  0  0  0  0  0  0  0  0  0  0  0
   -7.2092    0.0656   -0.8306 F   0  0  0  0  0  0  0  0  0  0  0  0
   -7.0530    1.4085    0.9370 F   0  0  0  0  0  0  0  0  0  0  0  0
   -6.0181    1.9226   -1.0442 F   0  0  0  0  0  0  0  0  0  0  0  0
   -6.5766   -1.3135    1.5502 C   0  0  0  0  0  0  0  0  0  0  0  0
   -7.6441   -1.6441    1.9033 N   0  0  0  0  0  0  0  0  0  0  0  0
    1.2719    2.5053    1.1337 O   0  0  0  0  0  0  0  0  0  0  0  0
    1.3163    3.1770   -1.1587 H   0  0  0  0  0  0  0  0  0  0  0  0
   -0.3946    2.6742   -1.3173 H   0  0  0  0  0  0  0  0  0  0  0  0
    0.8446    1.5785   -1.9582 H   0  0  0  0  0  0  0  0  0  0  0  0
    1.2336   -0.2244   -0.7285 H   0  0  0  0  0  0  0  0  0  0  0  0
    1.6605   -0.1871    1.0000 H   0  0  0  0  0  0  0  0  0  0  0  0
    5.0180   -0.4141    1.4278 H   0  0  0  0  0  0  0  0  0  0  0  0
    6.5248   -2.4145    1.1401 H   0  0  0  0  0  0  0  0  0  0  0  0
    5.3487   -2.7433   -2.8709 H   0  0  0  0  0  0  0  0  0  0  0  0
    3.8671   -0.7941   -2.6278 H   0  0  0  0  0  0  0  0  0  0  0  0
   -1.0316   -0.0941   -0.9963 H   0  0  0  0  0  0  0  0  0  0  0  0
   -2.0145   -1.6812    1.4289 H   0  0  0  0  0  0  0  0  0  0  0  0
   -4.2465   -2.4229    2.1808 H   0  0  0  0  0  0  0  0  0  0  0  0
   -3.7895    1.4937   -0.8019 H   0  0  0  0  0  0  0  0  0  0  0  0
    1.3452    2.0572    2.0097 H   0  0  0  0  0  0  0  0  0  0  0  0
  1  2  1  0
  2  3  1  0
  3  4  1  0
  4  5  2  0
  4  6  2  0
  4  7  1  0
  7  8  2  0
  8  9  1  0
  9 10  2  0
 10 11  1  0
 11 12  2  0
 10 13  1  0
  2 14  1  0
 14 15  2  0
 14 16  1  0
 16 17  1  0
 17 18  2  0
 18 19  1  0
 19 20  2  0
 20 21  1  0
 21 22  2  0
 21 23  1  0
 23 24  1  0
 23 25  1  0
 23 26  1  0
 20 27  1  0
 27 28  3  0
  2 29  1  1
 12  7  1  0
 22 17  1  0
  1 30  1  0
  1 31  1  0
  1 32  1  0
  3 33  1  0
  3 34  1  0
  8 35  1  0
  9 36  1  0
 11 37  1  0
 12 38  1  0
 16 39  1  0
 18 40  1  0
 19 41  1  0
 22 42  1  0
 29 43  1  0
M  END
$$$$
