
     RDKit          3D

 51 54  0  0  0  0  0  0  0  0999 V2000
   -1.8681    0.3894    1.5662 C   0  0  0  0  0  0  0  0  0  0  0  0
   -1.7537    0.4449    0.0954 C   0  0  2  0  0  0  0  0  0  0  0  0
   -2.4668    1.6910   -0.4575 C   0  0  0  0  0  0  0  0  0  0  0  0
   -3.9784    1.6978   -0.3819 C   0  0  0  0  0  0  0  0  0  0  0  0
   -4.4180    0.5325    0.3735 C   0  0  0  0  0  0  0  0  0  0  0  0
   -5.2510    0.6300    1.2481 O   0  0  0  0  0  0  0  0  0  0  0  0
   -3.8750   -0.7978    0.0995 C   0  0  0  0  0  0  0  0  0  0  0  0
   -2.4599   -0.7287   -0.5750 C   0  0  2  0  0  0  0  0  0  0  0  0
   -1.8211   -1.9836   -0.2028 C   0  0  0  0  0  0  0  0  0  0  0  0
   -0.3772   -1.9991   -0.5778 C   0  0  0  0  0  0  0  0  0  0  0  0
    0.3416   -0.8513    0.1099 C   0  0  2  0  0  0  0  0  0  0  0  0
   -0.3159    0.4472   -0.3740 C   0  0  2  0  0  0  0  0  0  0  0  0
    0.4721    1.6583    0.0110 C   0  0  0  0  0  0  0  0  0  0  0  0
    1.8912    1.6164   -0.5021 C   0  0  0  0  0  0  0  0  0  0  0  0
    2.5424    0.3742    0.0926 C   0  0  1  0  0  0  0  0  0  0  0  0
    1.7324   -0.7966   -0.3291 C   0  0  1  0  0  0  0  0  0  0  0  0
    2.6050   -1.7673    0.6248 C   0  0  0  0  0  0  0  0  0  0  0  0
    3.9987   -1.4185    0.1477 C   0  0  0  0  0  0  0  0  0  0  0  0
    3.8164   -0.0641   -0.5943 C   0  0  2  0  0  0  0  0  0  0  0  0
    4.8364    0.8254   -0.3024 O   0  0  0  0  0  0  0  0  0  0  0  0
    2.7317    0.6145    1.5481 C   0  0  0  0  0  0  0  0  0  0  0  0
   -2.7646    0.8868    1.9423 H   0  0  0  0  0  0  0  0  0  0  0  0
   -1.0252    0.9527    2.0834 H   0  0  0  0  0  0  0  0  0  0  0  0
   -1.9093   -0.6484    1.9725 H   0  0  0  0  0  0  0  0  0  0  0  0
   -2.0984    2.5292    0.2333 H   0  0  0  0  0  0  0  0  0  0  0  0
   -2.1670    1.9735   -1.4666 H   0  0  0  0  0  0  0  0  0  0  0  0
   -4.4796    1.8060   -1.3409 H   0  0  0  0  0  0  0  0  0  0  0  0
   -4.2981    2.5995    0.2483 H   0  0  0  0  0  0  0  0  0  0  0  0
   -3.7129   -1.3185    1.0568 H   0  0  0  0  0  0  0  0  0  0  0  0
   -4.4892   -1.4188   -0.4957 H   0  0  0  0  0  0  0  0  0  0  0  0
   -2.5842   -0.5433   -1.6103 H   0  0  0  0  0  0  0  0  0  0  0  0
   -1.9653   -2.2593    0.8253 H   0  0  0  0  0  0  0  0  0  0  0  0
   -2.2955   -2.7988   -0.8384 H   0  0  0  0  0  0  0  0  0  0  0  0
   -0.2102   -1.8890   -1.6817 H   0  0  0  0  0  0  0  0  0  0  0  0
    0.0963   -2.9252   -0.2454 H   0  0  0  0  0  0  0  0  0  0  0  0
    0.2592   -1.0024    1.1816 H   0  0  0  0  0  0  0  0  0  0  0  0
   -0.2886    0.3647   -1.4968 H   0  0  0  0  0  0  0  0  0  0  0  0
    0.4058    1.9522    1.0792 H   0  0  0  0  0  0  0  0  0  0  0  0
    0.0108    2.5091   -0.5924 H   0  0  0  0  0  0  0  0  0  0  0  0
    2.4400    2.5308   -0.3333 H   0  0  0  0  0  0  0  0  0  0  0  0
    1.8009    1.4341   -1.5986 H   0  0  0  0  0  0  0  0  0  0  0  0
    1.9247   -1.0940   -1.3367 H   0  0  0  0  0  0  0  0  0  0  0  0
    2.4117   -1.3850    1.6102 H   0  0  0  0  0  0  0  0  0  0  0  0
    2.2945   -2.7812    0.4197 H   0  0  0  0  0  0  0  0  0  0  0  0
    4.3900   -2.1603   -0.5400 H   0  0  0  0  0  0  0  0  0  0  0  0
    4.6861   -1.2484    1.0141 H   0  0  0  0  0  0  0  0  0  0  0  0
    3.6231   -0.2519   -1.6422 H   0  0  0  0  0  0  0  0  0  0  0  0
    5.1187    1.3771   -1.0431 H   0  0  0  0  0  0  0  0  0  0  0  0
    1.9049    0.3757    2.2057 H   0  0  0  0  0  0  0  0  0  0  0  0
    3.6597    0.1763    1.9157 H   0  0  0  0  0  0  0  0  0  0  0  0
    2.8790    1.7424    1.6792 H   0  0  0  0  0  0  0  0  0  0  0  0
  2  1  1  1
  2  3  1  0
  3  4  1  0
  4  5  1  0
  5  6  2  0
  5  7  1  0
  7  8  1  0
  8  9  1  0
  9 10  1  0
 10 11  1  0
 11 12  1  0
 12 13  1  0
 13 14  1  0
 14 15  1  0
 15 16  1  0
 16 17  1  0
 17 18  1  0
 18 19  1  0
 19 20  1  0
 15 21  1  1
  8  2  1  0
 12  2  1  0
 16 11  1  0
 19 15  1  0
  1 22  1  0
  1 23  1  0
  1 24  1  0
  3 25  1  0
  3 26  1  0
  4 27  1  0
  4 28  1  0
  7 29  1  0
  7 30  1  0
  8 31  1  6
  9 32  1  0
  9 33  1  0
 10 34  1  0
 10 35  1  0
 11 36  1  1
 12 37  1  6
 13 38  1  0
 13 39  1  0
 14 40  1  0
 14 41  1  0
 16 42  1  6
 17 43  1  0
 17 44  1  0
 18 45  1  0
 18 46  1  0
 19 47  1  6
 20 48  1  0
 21 49  1  0
 21 50  1  0
 21 51  1  0
M  END
$$$$
