
     RDKit          3D

 68 72  0  0  0  0  0  0  0  0999 V2000
   -3.4011    1.1890    1.1912 C   0  0  0  0  0  0  0  0  0  0  0  0
   -3.4566    0.7009   -0.2835 C   0  0  2  0  0  0  0  0  0  0  0  0
   -4.0573    1.8163   -1.0496 C   0  0  0  0  0  0  0  0  0  0  0  0
   -5.4170    2.1727   -0.4699 C   0  0  0  0  0  0  0  0  0  0  0  0
   -6.2460    0.9370   -0.4081 C   0  0  0  0  0  0  0  0  0  0  0  0
   -7.3081    0.8746   -0.9344 O   0  0  0  0  0  0  0  0  0  0  0  0
   -5.6600   -0.2503    0.3670 C   0  0  0  0  0  0  0  0  0  0  0  0
   -4.3911   -0.5109   -0.3075 C   0  0  2  0  0  0  0  0  0  0  0  0
   -3.7530   -1.8560   -0.4272 C   0  0  0  0  0  0  0  0  0  0  0  0
   -2.7263   -1.8978    0.7170 C   0  0  0  0  0  0  0  0  0  0  0  0
   -1.7122   -0.8548    0.4639 C   0  0  2  0  0  0  0  0  0  0  0  0
   -2.1430    0.1535   -0.6333 C   0  0  2  0  0  0  0  0  0  0  0  0
   -1.0903    1.2234   -0.8301 C   0  0  0  0  0  0  0  0  0  0  0  0
    0.2198    0.5968   -1.2351 C   0  0  0  0  0  0  0  0  0  0  0  0
    0.6570   -0.3399   -0.1612 C   0  0  1  0  0  0  0  0  0  0  0  0
   -0.4104   -1.3564    0.0600 C   0  0  1  0  0  0  0  0  0  0  0  0
    0.3067   -2.1219    1.2053 C   0  0  0  0  0  0  0  0  0  0  0  0
    1.7002   -2.3120    0.5931 C   0  0  0  0  0  0  0  0  0  0  0  0
    1.6645   -1.3851   -0.6634 C   0  0  2  0  0  0  0  0  0  0  0  0
    2.9011   -0.9682   -0.9331 O   0  0  0  0  0  0  0  0  0  0  0  0
    1.0308    0.3423    1.0802 C   0  0  0  0  0  0  0  0  0  0  0  0
    2.1394    1.3748    0.9714 C   0  0  0  0  0  0  0  0  0  0  0  0
    3.3243    0.8744    0.6239 O   0  0  0  0  0  0  0  0  0  0  0  0
    4.3934    1.7068    0.5156 C   0  0  0  0  0  0  0  0  0  0  0  0
    5.5818    0.7860    0.2507 C   0  0  0  0  0  0  0  0  0  0  0  0
    6.1442    0.1735    1.3591 C   0  0  0  0  0  0  0  0  0  0  0  0
    7.2398   -0.6515    1.1467 C   0  0  0  0  0  0  0  0  0  0  0  0
    7.7538   -0.8620   -0.0695 C   0  0  0  0  0  0  0  0  0  0  0  0
    7.1786   -0.2355   -1.1901 C   0  0  0  0  0  0  0  0  0  0  0  0
    6.0712    0.5956   -0.9924 C   0  0  0  0  0  0  0  0  0  0  0  0
    7.6357   -0.4048   -2.4399 F   0  0  0  0  0  0  0  0  0  0  0  0
    7.8218   -1.2937    2.2239 F   0  0  0  0  0  0  0  0  0  0  0  0
   -2.3719    1.5325    1.3846 H   0  0  0  0  0  0  0  0  0  0  0  0
   -4.0546    2.0605    1.3525 H   0  0  0  0  0  0  0  0  0  0  0  0
   -3.7329    0.4159    1.8995 H   0  0  0  0  0  0  0  0  0  0  0  0
   -3.4262    2.7387   -0.9119 H   0  0  0  0  0  0  0  0  0  0  0  0
   -4.1279    1.6977   -2.1455 H   0  0  0  0  0  0  0  0  0  0  0  0
   -5.9007    2.8287   -1.2653 H   0  0  0  0  0  0  0  0  0  0  0  0
   -5.4266    2.7767    0.4071 H   0  0  0  0  0  0  0  0  0  0  0  0
   -6.3633   -1.1169    0.1967 H   0  0  0  0  0  0  0  0  0  0  0  0
   -5.6423   -0.0231    1.4308 H   0  0  0  0  0  0  0  0  0  0  0  0
   -4.7480   -0.4170   -1.4756 H   0  0  0  0  0  0  0  0  0  0  0  0
   -3.2312   -2.0600   -1.3560 H   0  0  0  0  0  0  0  0  0  0  0  0
   -4.5022   -2.6072   -0.2196 H   0  0  0  0  0  0  0  0  0  0  0  0
   -3.2755   -1.9047    1.6681 H   0  0  0  0  0  0  0  0  0  0  0  0
   -2.2927   -2.9338    0.6368 H   0  0  0  0  0  0  0  0  0  0  0  0
   -1.6151   -0.2660    1.4019 H   0  0  0  0  0  0  0  0  0  0  0  0
   -2.1875   -0.4059   -1.6084 H   0  0  0  0  0  0  0  0  0  0  0  0
   -1.4691    1.8653   -1.6627 H   0  0  0  0  0  0  0  0  0  0  0  0
   -1.0031    1.8200    0.0757 H   0  0  0  0  0  0  0  0  0  0  0  0
    0.9833    1.3313   -1.5596 H   0  0  0  0  0  0  0  0  0  0  0  0
   -0.0055   -0.0155   -2.1209 H   0  0  0  0  0  0  0  0  0  0  0  0
   -0.4546   -2.0491   -0.7963 H   0  0  0  0  0  0  0  0  0  0  0  0
    0.2332   -1.7227    2.1696 H   0  0  0  0  0  0  0  0  0  0  0  0
   -0.2065   -3.1519    1.2528 H   0  0  0  0  0  0  0  0  0  0  0  0
    2.4825   -2.0385    1.2843 H   0  0  0  0  0  0  0  0  0  0  0  0
    1.7281   -3.3522    0.2082 H   0  0  0  0  0  0  0  0  0  0  0  0
    1.1368   -1.9275   -1.4692 H   0  0  0  0  0  0  0  0  0  0  0  0
    2.9591   -0.3778   -1.7373 H   0  0  0  0  0  0  0  0  0  0  0  0
    0.1692    0.8207    1.5748 H   0  0  0  0  0  0  0  0  0  0  0  0
    1.4540   -0.3869    1.8204 H   0  0  0  0  0  0  0  0  0  0  0  0
    1.8774    2.1932    0.2400 H   0  0  0  0  0  0  0  0  0  0  0  0
    2.1935    1.9188    1.9134 H   0  0  0  0  0  0  0  0  0  0  0  0
    4.5813    2.3981    1.3422 H   0  0  0  0  0  0  0  0  0  0  0  0
    4.2522    2.2771   -0.4361 H   0  0  0  0  0  0  0  0  0  0  0  0
    5.7363    0.3048    2.3499 H   0  0  0  0  0  0  0  0  0  0  0  0
    8.6297   -1.5167   -0.2757 H   0  0  0  0  0  0  0  0  0  0  0  0
    5.6293    1.0768   -1.8833 H   0  0  0  0  0  0  0  0  0  0  0  0
  2  1  1  1
  2  3  1  0
  3  4  1  0
  4  5  1  0
  5  6  2  0
  5  7  1  0
  7  8  1  0
  8  9  1  0
  9 10  1  0
 10 11  1  0
 11 12  1  0
 12 13  1  0
 13 14  1  0
 14 15  1  0
 15 16  1  0
 16 17  1  0
 17 18  1  0
 18 19  1  0
 19 20  1  0
 15 21  1  1
 21 22  1  0
 22 23  1  0
 23 24  1  0
 24 25  1  0
 25 26  2  0
 26 27  1  0
 27 28  2  0
 28 29  1  0
 29 30  2  0
 29 31  1  0
 27 32  1  0
  8  2  1  0
 12  2  1  0
 16 11  1  0
 19 15  1  0
 30 25  1  0
  1 33  1  0
  1 34  1  0
  1 35  1  0
  3 36  1  0
  3 37  1  0
  4 38  1  0
  4 39  1  0
  7 40  1  0
  7 41  1  0
  8 42  1  6
  9 43  1  0
  9 44  1  0
 10 45  1  0
 10 46  1  0
 11 47  1  1
 12 48  1  6
 13 49  1  0
 13 50  1  0
 14 51  1  0
 14 52  1  0
 16 53  1  6
 17 54  1  0
 17 55  1  0
 18 56  1  0
 18 57  1  0
 19 58  1  6
 20 59  1  0
 21 60  1  0
 21 61  1  0
 22 62  1  0
 22 63  1  0
 24 64  1  0
 24 65  1  0
 26 66  1  0
 28 67  1  0
 30 68  1  0
M  END
$$$$
