
     RDKit          3D

 31 31  0  0  0  0  0  0  0  0999 V2000
   -3.7998   -0.8542   -0.2385 C   0  0  0  0  0  0  0  0  0  0  0  0
   -3.2152    0.4436    0.3335 C   0  0  0  0  0  0  0  0  0  0  0  0
   -3.4281    1.5236   -0.7076 C   0  0  0  0  0  0  0  0  0  0  0  0
   -1.7634    0.1618    0.5420 C   0  0  0  0  0  0  0  0  0  0  0  0
   -1.2612    0.1833    1.6906 O   0  0  0  0  0  0  0  0  0  0  0  0
   -0.8997   -0.1410   -0.5544 N   0  0  0  0  0  0  0  0  0  0  0  0
    0.5054   -0.4130   -0.3437 C   0  0  0  0  0  0  0  0  0  0  0  0
    0.9469   -1.6983   -0.1182 C   0  0  0  0  0  0  0  0  0  0  0  0
    2.2583   -1.9849    0.0836 C   0  0  0  0  0  0  0  0  0  0  0  0
    3.2007   -0.9505    0.0642 C   0  0  0  0  0  0  0  0  0  0  0  0
    2.7586    0.3234   -0.1605 C   0  0  0  0  0  0  0  0  0  0  0  0
    1.4225    0.6069   -0.3647 C   0  0  0  0  0  0  0  0  0  0  0  0
    3.7125    1.4636   -0.2082 C   0  0  0  0  0  0  0  0  0  0  0  0
    4.6341    1.3940   -1.1991 F   0  0  0  0  0  0  0  0  0  0  0  0
    4.4359    1.4929    0.9961 F   0  0  0  0  0  0  0  0  0  0  0  0
    3.0654    2.6590   -0.2848 F   0  0  0  0  0  0  0  0  0  0  0  0
    4.5310   -1.3375    0.3016 N   0  0  0  0  0  4  0  0  0  0  0  0
    5.4703   -0.7490   -0.2251 O   0  0  0  0  0  0  0  0  0  0  0  0
    4.7856   -2.3957    1.1322 O   0  0  0  0  0  1  0  0  0  0  0  0
   -3.8291    0.7106    1.5339 O   0  0  0  0  0  0  0  0  0  0  0  0
   -3.0379   -1.2685   -0.9153 H   0  0  0  0  0  0  0  0  0  0  0  0
   -4.7533   -0.5944   -0.7395 H   0  0  0  0  0  0  0  0  0  0  0  0
   -3.9461   -1.6060    0.5869 H   0  0  0  0  0  0  0  0  0  0  0  0
   -3.4026    2.5238   -0.2047 H   0  0  0  0  0  0  0  0  0  0  0  0
   -4.4011    1.3712   -1.2082 H   0  0  0  0  0  0  0  0  0  0  0  0
   -2.5852    1.4951   -1.4577 H   0  0  0  0  0  0  0  0  0  0  0  0
   -1.3298   -0.1555   -1.5036 H   0  0  0  0  0  0  0  0  0  0  0  0
    0.2282   -2.5116   -0.0998 H   0  0  0  0  0  0  0  0  0  0  0  0
    2.5544   -3.0040    0.2556 H   0  0  0  0  0  0  0  0  0  0  0  0
    1.0717    1.6248   -0.5436 H   0  0  0  0  0  0  0  0  0  0  0  0
   -3.9289    1.6864    1.6444 H   0  0  0  0  0  0  0  0  0  0  0  0
  1  2  1  0
  2  3  1  0
  2  4  1  0
  4  5  2  0
  4  6  1  0
  6  7  1  0
  7  8  2  0
  8  9  1  0
  9 10  2  0
 10 11  1  0
 11 12  2  0
 11 13  1  0
 13 14  1  0
 13 15  1  0
 13 16  1  0
 10 17  1  0
 17 18  2  0
 17 19  1  0
  2 20  1  0
 12  7  1  0
  1 21  1  0
  1 22  1  0
  1 23  1  0
  3 24  1  0
  3 25  1  0
  3 26  1  0
  6 27  1  0
  8 28  1  0
  9 29  1  0
 12 30  1  0
 20 31  1  0
M  CHG  2  17   1  19  -1
M  END
$$$$
