
     RDKit          3D

 51 54  0  0  0  0  0  0  0  0999 V2000
   -4.5547    0.1019   -1.8925 C   0  0  0  0  0  0  0  0  0  0  0  0
   -3.0816   -0.3608   -1.7422 C   0  0  0  0  0  0  0  0  0  0  0  0
   -2.6276    0.0708   -0.4708 C   0  0  2  0  0  0  0  0  0  0  0  0
   -2.6987    1.6400   -0.3324 C   0  0  0  0  0  0  0  0  0  0  0  0
   -1.3594    1.9790    0.2192 C   0  0  0  0  0  0  0  0  0  0  0  0
   -0.4659    0.7640   -0.2426 C   0  0  2  0  0  0  0  0  0  0  0  0
   -1.4440   -0.3014    0.3287 C   0  0  2  0  0  0  0  0  0  0  0  0
   -0.7606   -1.5765   -0.0881 C   0  0  0  0  0  0  0  0  0  0  0  0
    0.5244   -1.6490   -0.1500 C   0  0  0  0  0  0  0  0  0  0  0  0
    1.3964   -0.5189    0.1156 C   0  0  0  0  0  0  0  0  0  0  0  0
    2.6985   -0.4752    0.1520 C   0  0  0  0  0  0  0  0  0  0  0  0
    3.4387   -1.7846   -0.0608 C   0  0  0  0  0  0  0  0  0  0  0  0
    4.7751   -1.4608   -0.6055 C   0  0  0  0  0  0  0  0  0  0  0  0
    5.5670   -0.4850    0.2674 C   0  0  0  0  0  0  0  0  0  0  0  0
    6.6063   -0.6638    0.7991 O   0  0  0  0  0  0  0  0  0  0  0  0
    4.7789    0.7950    0.3423 C   0  0  0  0  0  0  0  0  0  0  0  0
    3.4844    0.7022    0.2694 C   0  0  0  0  0  0  0  0  0  0  0  0
    2.6746    2.0699    0.0713 C   0  0  0  0  0  0  0  0  0  0  0  0
    1.5442    1.7874    0.9274 C   0  0  0  0  0  0  0  0  0  0  0  0
    0.6105    0.7162    0.7980 C   0  0  1  0  0  0  0  0  0  0  0  0
   -1.5568   -0.4683    1.7830 C   0  0  0  0  0  0  0  0  0  0  0  0
   -2.5384   -1.6636    1.9913 C   0  0  0  0  0  0  0  0  0  0  0  0
   -3.7522   -0.2221    0.4557 O   0  0  0  0  0  0  0  0  0  0  0  0
   -4.6364    1.0502   -2.4190 H   0  0  0  0  0  0  0  0  0  0  0  0
   -4.9349    0.3189   -0.8464 H   0  0  0  0  0  0  0  0  0  0  0  0
   -5.1770   -0.7251   -2.2344 H   0  0  0  0  0  0  0  0  0  0  0  0
   -2.5806    0.0126   -2.6340 H   0  0  0  0  0  0  0  0  0  0  0  0
   -3.1307   -1.4670   -1.8533 H   0  0  0  0  0  0  0  0  0  0  0  0
   -3.5336    1.9494    0.3274 H   0  0  0  0  0  0  0  0  0  0  0  0
   -2.7743    2.0014   -1.3742 H   0  0  0  0  0  0  0  0  0  0  0  0
   -0.8880    2.8158   -0.3188 H   0  0  0  0  0  0  0  0  0  0  0  0
   -1.3008    2.0010    1.3363 H   0  0  0  0  0  0  0  0  0  0  0  0
   -0.3249    0.7646   -1.2416 H   0  0  0  0  0  0  0  0  0  0  0  0
   -1.3673   -2.4430   -0.2966 H   0  0  0  0  0  0  0  0  0  0  0  0
    1.0484   -2.5734   -0.4063 H   0  0  0  0  0  0  0  0  0  0  0  0
    3.5421   -2.2612    0.8794 H   0  0  0  0  0  0  0  0  0  0  0  0
    2.9090   -2.4096   -0.8303 H   0  0  0  0  0  0  0  0  0  0  0  0
    4.7644   -1.0150   -1.5962 H   0  0  0  0  0  0  0  0  0  0  0  0
    5.4504   -2.3644   -0.6186 H   0  0  0  0  0  0  0  0  0  0  0  0
    5.3085    1.7365    0.5329 H   0  0  0  0  0  0  0  0  0  0  0  0
    2.3273    2.0071   -1.0289 H   0  0  0  0  0  0  0  0  0  0  0  0
    3.2610    2.9282    0.2534 H   0  0  0  0  0  0  0  0  0  0  0  0
    0.8894    2.7659    0.9422 H   0  0  0  0  0  0  0  0  0  0  0  0
    1.9329    1.7544    2.0286 H   0  0  0  0  0  0  0  0  0  0  0  0
    0.2301    0.4378    1.7244 H   0  0  0  0  0  0  0  0  0  0  0  0
   -1.9260    0.3746    2.3936 H   0  0  0  0  0  0  0  0  0  0  0  0
   -0.5895   -0.9429    2.1391 H   0  0  0  0  0  0  0  0  0  0  0  0
   -2.8606   -2.1086    1.0219 H   0  0  0  0  0  0  0  0  0  0  0  0
   -1.9231   -2.5138    2.4439 H   0  0  0  0  0  0  0  0  0  0  0  0
   -3.3299   -1.4705    2.6988 H   0  0  0  0  0  0  0  0  0  0  0  0
   -3.6451    0.3798    1.2538 H   0  0  0  0  0  0  0  0  0  0  0  0
  1  2  1  0
  2  3  1  0
  3  4  1  0
  4  5  1  0
  5  6  1  0
  6  7  1  0
  7  8  1  0
  8  9  2  0
  9 10  1  0
 10 11  2  0
 11 12  1  0
 12 13  1  0
 13 14  1  0
 14 15  2  0
 14 16  1  0
 16 17  2  0
 17 18  1  0
 18 19  1  0
 19 20  1  0
  7 21  1  1
 21 22  1  0
  3 23  1  1
  7  3  1  0
 20  6  1  0
 20 10  1  0
 17 11  1  0
  1 24  1  0
  1 25  1  0
  1 26  1  0
  2 27  1  0
  2 28  1  0
  4 29  1  0
  4 30  1  0
  5 31  1  0
  5 32  1  0
  6 33  1  6
  8 34  1  0
  9 35  1  0
 12 36  1  0
 12 37  1  0
 13 38  1  0
 13 39  1  0
 16 40  1  0
 18 41  1  0
 18 42  1  0
 19 43  1  0
 19 44  1  0
 20 45  1  1
 21 46  1  0
 21 47  1  0
 22 48  1  0
 22 49  1  0
 22 50  1  0
 23 51  1  0
M  END
$$$$
