
     RDKit          3D

 31 31  0  0  0  0  0  0  0  0999 V2000
   -3.8400    1.1000   -1.0356 C   0  0  0  0  0  0  0  0  0  0  0  0
   -3.1959    0.0723   -0.1338 C   0  0  2  0  0  0  0  0  0  0  0  0
   -4.0163   -0.0501    1.1294 C   0  0  0  0  0  0  0  0  0  0  0  0
   -5.7854   -0.6030    0.6415 Br  0  0  0  0  0  0  0  0  0  0  0  0
   -1.8127    0.5303    0.2076 C   0  0  0  0  0  0  0  0  0  0  0  0
   -1.6878    1.6053    0.7941 O   0  0  0  0  0  0  0  0  0  0  0  0
   -0.7233   -0.2712   -0.1482 N   0  0  0  0  0  0  0  0  0  0  0  0
    0.6417    0.0212    0.1033 C   0  0  0  0  0  0  0  0  0  0  0  0
    1.0496    1.1570    0.7456 C   0  0  0  0  0  0  0  0  0  0  0  0
    2.4207    1.3385    0.9370 C   0  0  0  0  0  0  0  0  0  0  0  0
    3.3367    0.3899    0.4862 C   0  0  0  0  0  0  0  0  0  0  0  0
    2.9238   -0.7508   -0.1584 C   0  0  0  0  0  0  0  0  0  0  0  0
    1.5741   -0.9269   -0.3458 C   0  0  0  0  0  0  0  0  0  0  0  0
    3.9053   -1.7646   -0.6215 C   0  0  0  0  0  0  0  0  0  0  0  0
    3.1750   -2.7707   -1.2697 F   0  0  0  0  0  0  0  0  0  0  0  0
    4.8472   -1.2962   -1.4768 F   0  0  0  0  0  0  0  0  0  0  0  0
    4.4460   -2.4337    0.4907 F   0  0  0  0  0  0  0  0  0  0  0  0
    4.7238    0.6042    0.6758 N   0  0  0  0  0  4  0  0  0  0  0  0
    5.6005   -0.2214    0.8572 O   0  0  0  0  0  0  0  0  0  0  0  0
    5.1407    1.9388    0.6540 O   0  0  0  0  0  1  0  0  0  0  0  0
   -3.1627   -1.1391   -0.7806 O   0  0  0  0  0  0  0  0  0  0  0  0
   -3.8596    0.7209   -2.0890 H   0  0  0  0  0  0  0  0  0  0  0  0
   -3.2712    2.0499   -1.0618 H   0  0  0  0  0  0  0  0  0  0  0  0
   -4.8609    1.3217   -0.6747 H   0  0  0  0  0  0  0  0  0  0  0  0
   -4.0655    0.9518    1.6342 H   0  0  0  0  0  0  0  0  0  0  0  0
   -3.5605   -0.7881    1.8064 H   0  0  0  0  0  0  0  0  0  0  0  0
   -0.9649   -1.1776   -0.6523 H   0  0  0  0  0  0  0  0  0  0  0  0
    0.3714    1.9165    1.1104 H   0  0  0  0  0  0  0  0  0  0  0  0
    2.7696    2.2284    1.4422 H   0  0  0  0  0  0  0  0  0  0  0  0
    1.2474   -1.8369   -0.8603 H   0  0  0  0  0  0  0  0  0  0  0  0
   -3.3669   -1.9164   -0.1969 H   0  0  0  0  0  0  0  0  0  0  0  0
  1  2  1  0
  2  3  1  0
  3  4  1  0
  2  5  1  0
  5  6  2  0
  5  7  1  0
  7  8  1  0
  8  9  2  0
  9 10  1  0
 10 11  2  0
 11 12  1  0
 12 13  2  0
 12 14  1  0
 14 15  1  0
 14 16  1  0
 14 17  1  0
 11 18  1  0
 18 19  2  0
 18 20  1  0
  2 21  1  6
 13  8  1  0
  1 22  1  0
  1 23  1  0
  1 24  1  0
  3 25  1  0
  3 26  1  0
  7 27  1  0
  9 28  1  0
 10 29  1  0
 13 30  1  0
 21 31  1  0
M  CHG  2  18   1  20  -1
M  END
$$$$
