
     RDKit          3D

 42 43  0  0  0  0  0  0  0  0999 V2000
    1.3988   -2.3126    0.8786 C   0  0  0  0  0  0  0  0  0  0  0  0
    1.0147   -1.2032   -0.1101 C   0  0  2  0  0  0  0  0  0  0  0  0
    2.0010   -0.0812   -0.0763 C   0  0  0  0  0  0  0  0  0  0  0  0
    3.2762   -0.5947   -0.3225 O   0  0  0  0  0  0  0  0  0  0  0  0
    4.4439    0.1326   -0.3705 C   0  0  0  0  0  0  0  0  0  0  0  0
    5.6183   -0.5446   -0.6271 C   0  0  0  0  0  0  0  0  0  0  0  0
    6.8164    0.1354   -0.6860 C   0  0  0  0  0  0  0  0  0  0  0  0
    6.8933    1.4985   -0.4946 C   0  0  0  0  0  0  0  0  0  0  0  0
    5.7244    2.1781   -0.2384 C   0  0  0  0  0  0  0  0  0  0  0  0
    4.5167    1.4968   -0.1783 C   0  0  0  0  0  0  0  0  0  0  0  0
    8.0842    2.1674   -0.5542 F   0  0  0  0  0  0  0  0  0  0  0  0
   -0.3651   -0.7984    0.2623 C   0  0  0  0  0  0  0  0  0  0  0  0
   -0.5342   -0.2479    1.3791 O   0  0  0  0  0  0  0  0  0  0  0  0
   -1.4913   -1.0005   -0.5723 N   0  0  0  0  0  0  0  0  0  0  0  0
   -2.8150   -0.6120   -0.2147 C   0  0  0  0  0  0  0  0  0  0  0  0
   -3.6771   -1.4527    0.4582 C   0  0  0  0  0  0  0  0  0  0  0  0
   -4.9490   -1.0740    0.8001 C   0  0  0  0  0  0  0  0  0  0  0  0
   -5.4508    0.1972    0.4843 C   0  0  0  0  0  0  0  0  0  0  0  0
   -4.5924    1.0365   -0.1872 C   0  0  0  0  0  0  0  0  0  0  0  0
   -3.2983    0.6398   -0.5303 C   0  0  0  0  0  0  0  0  0  0  0  0
   -5.0503    2.3933   -0.5720 C   0  0  0  0  0  0  0  0  0  0  0  0
   -5.4418    3.1014    0.5349 F   0  0  0  0  0  0  0  0  0  0  0  0
   -4.0005    3.0606   -1.2198 F   0  0  0  0  0  0  0  0  0  0  0  0
   -6.1007    2.2723   -1.4526 F   0  0  0  0  0  0  0  0  0  0  0  0
   -6.7617    0.5124    0.8849 N   0  0  0  0  0  4  0  0  0  0  0  0
   -7.5729    1.2510    0.3187 O   0  0  0  0  0  0  0  0  0  0  0  0
   -7.2261   -0.0720    2.0646 O   0  0  0  0  0  1  0  0  0  0  0  0
    1.0577   -1.7952   -1.3683 O   0  0  0  0  0  0  0  0  0  0  0  0
    1.3604   -1.9184    1.9148 H   0  0  0  0  0  0  0  0  0  0  0  0
    0.6606   -3.1221    0.7999 H   0  0  0  0  0  0  0  0  0  0  0  0
    2.4344   -2.6605    0.7036 H   0  0  0  0  0  0  0  0  0  0  0  0
    1.7506    0.6033   -0.9219 H   0  0  0  0  0  0  0  0  0  0  0  0
    1.9265    0.5008    0.8572 H   0  0  0  0  0  0  0  0  0  0  0  0
    5.6483   -1.6131   -0.7891 H   0  0  0  0  0  0  0  0  0  0  0  0
    7.7429   -0.4086   -0.8895 H   0  0  0  0  0  0  0  0  0  0  0  0
    5.7201    3.2647   -0.0771 H   0  0  0  0  0  0  0  0  0  0  0  0
    3.6104    2.0297    0.0211 H   0  0  0  0  0  0  0  0  0  0  0  0
   -1.2932   -1.4692   -1.5029 H   0  0  0  0  0  0  0  0  0  0  0  0
   -3.3024   -2.4389    0.7092 H   0  0  0  0  0  0  0  0  0  0  0  0
   -5.6137   -1.7636    1.3356 H   0  0  0  0  0  0  0  0  0  0  0  0
   -2.6270    1.3205   -1.0645 H   0  0  0  0  0  0  0  0  0  0  0  0
    0.4640   -2.6091   -1.4061 H   0  0  0  0  0  0  0  0  0  0  0  0
  1  2  1  0
  2  3  1  0
  3  4  1  0
  4  5  1  0
  5  6  2  0
  6  7  1  0
  7  8  2  0
  8  9  1  0
  9 10  2  0
  8 11  1  0
  2 12  1  0
 12 13  2  0
 12 14  1  0
 14 15  1  0
 15 16  2  0
 16 17  1  0
 17 18  2  0
 18 19  1  0
 19 20  2  0
 19 21  1  0
 21 22  1  0
 21 23  1  0
 21 24  1  0
 18 25  1  0
 25 26  2  0
 25 27  1  0
  2 28  1  6
 10  5  1  0
 20 15  1  0
  1 29  1  0
  1 30  1  0
  1 31  1  0
  3 32  1  0
  3 33  1  0
  6 34  1  0
  7 35  1  0
  9 36  1  0
 10 37  1  0
 14 38  1  0
 16 39  1  0
 17 40  1  0
 20 41  1  0
 28 42  1  0
M  CHG  2  25   1  27  -1
M  END
$$$$
