2AMB_ligand
  PyMOL2.5          3D                             0

 51 54  0  0  0  0  0  0  0  0999 V2000
   26.9480    5.4390    4.0740 C   0  0  0  0  0  0  0  0  0  0  0  0
   26.1480    6.6820    4.4730 C   0  0  0  0  0  0  0  0  0  0  0  0
   24.6630    6.5080    4.2110 C   0  0  0  0  0  0  0  0  0  0  0  0
   24.0150    7.4610    3.7980 O   0  0  0  0  0  0  0  0  0  0  0  0
   24.0690    5.1950    4.4820 C   0  0  0  0  0  0  0  0  0  0  0  0
   24.8180    4.0810    4.6210 C   0  0  0  0  0  0  0  0  0  0  0  0
   24.1100    2.7810    4.9600 C   0  0  0  0  0  0  0  0  0  0  0  0
   24.8610    1.5880    4.3780 C   0  0  0  0  0  0  0  0  0  0  0  0
   26.3180    1.6080    4.8640 C   0  0  0  0  0  0  0  0  0  0  0  0
   27.0010    2.9580    4.5730 C   0  0  0  0  0  0  0  0  0  0  0  0
   26.2810    4.1090    4.4550 C   0  0  0  0  0  0  0  0  0  0  0  0
   28.4550    2.9560    4.3750 C   0  0  0  0  0  0  0  0  0  0  0  0
   29.2110    1.8440    4.4220 C   0  0  0  0  0  0  0  0  0  0  0  0
   28.6360    0.4700    4.7080 C   0  0  0  0  0  0  0  0  0  0  0  0
   27.1650    0.4830    4.2330 C   0  0  0  0  0  0  0  0  0  0  0  0
   26.7290   -0.9750    4.3100 C   0  0  0  0  0  0  0  0  0  0  0  0
   27.9870   -1.7410    3.8580 C   0  0  0  0  0  0  0  0  0  0  0  0
   29.1730   -0.7340    3.8580 C   0  0  0  0  0  0  0  0  0  0  0  0
   30.2950   -1.3540    4.4500 O   0  0  0  0  0  0  0  0  0  0  0  0
   28.7760    0.2060    6.2440 C   0  0  0  0  0  0  0  0  0  0  0  0
   29.6090   -0.3410    2.4200 C   0  0  0  0  0  0  0  0  0  0  0  0
   30.3230   -1.4350    1.6230 C   0  0  0  0  0  0  0  0  0  0  0  0
   30.1210    0.5830    6.8970 C   0  0  0  0  0  0  0  0  0  0  0  0
   28.9840    3.8710    4.1960 H   0  0  0  0  0  0  0  0  0  0  0  0
   30.2790    1.9140    4.2810 H   0  0  0  0  0  0  0  0  0  0  0  0
   27.1570    0.7180    3.1670 H   0  0  0  0  0  0  0  0  0  0  0  0
   22.9950    5.1520    4.5950 H   0  0  0  0  0  0  0  0  0  0  0  0
   26.2760    1.4950    5.9450 H   0  0  0  0  0  0  0  0  0  0  0  0
   31.0180   -0.7410    4.4420 H   0  0  0  0  0  0  0  0  0  0  0  0
   25.8820   -1.1800    3.6570 H   0  0  0  0  0  0  0  0  0  0  0  0
   26.4490   -1.2480    5.3290 H   0  0  0  0  0  0  0  0  0  0  0  0
   27.8340   -2.1730    2.8700 H   0  0  0  0  0  0  0  0  0  0  0  0
   28.1650   -2.5760    4.5360 H   0  0  0  0  0  0  0  0  0  0  0  0
   28.5680   -0.8400    6.4510 H   0  0  0  0  0  0  0  0  0  0  0  0
   28.0270    0.7600    6.8020 H   0  0  0  0  0  0  0  0  0  0  0  0
   30.2950    0.5050    2.4530 H   0  0  0  0  0  0  0  0  0  0  0  0
   28.7490   -0.0090    1.8430 H   0  0  0  0  0  0  0  0  0  0  0  0
   30.5850   -1.0470    0.6440 H   0  0  0  0  0  0  0  0  0  0  0  0
   31.2600   -1.7280    2.0950 H   0  0  0  0  0  0  0  0  0  0  0  0
   29.7040   -2.3210    1.4870 H   0  0  0  0  0  0  0  0  0  0  0  0
   30.1210    0.2670    7.9390 H   0  0  0  0  0  0  0  0  0  0  0  0
   30.9760    0.1090    6.4170 H   0  0  0  0  0  0  0  0  0  0  0  0
   30.2900    1.6600    6.8900 H   0  0  0  0  0  0  0  0  0  0  0  0
   27.9080    5.5540    4.5700 H   0  0  0  0  0  0  0  0  0  0  0  0
   27.1380    5.4380    3.0000 H   0  0  0  0  0  0  0  0  0  0  0  0
   26.5130    7.5580    3.9370 H   0  0  0  0  0  0  0  0  0  0  0  0
   26.2730    6.8890    5.5330 H   0  0  0  0  0  0  0  0  0  0  0  0
   24.0460    2.6940    6.0460 H   0  0  0  0  0  0  0  0  0  0  0  0
   23.0870    2.7930    4.5810 H   0  0  0  0  0  0  0  0  0  0  0  0
   24.8260    1.6200    3.2880 H   0  0  0  0  0  0  0  0  0  0  0  0
   24.3700    0.6650    4.6830 H   0  0  0  0  0  0  0  0  0  0  0  0
  1 11  1  0  0  0  0
  1 44  1  0  0  0  0
  1 45  1  0  0  0  0
  1  2  1  0  0  0  0
  2  3  1  0  0  0  0
  2 46  1  0  0  0  0
  2 47  1  0  0  0  0
  3  4  2  0  0  0  0
  3  5  1  0  0  0  0
  5  6  2  0  0  0  0
  5 27  1  0  0  0  0
  6 11  1  0  0  0  0
  6  7  1  0  0  0  0
  7 48  1  0  0  0  0
  7 49  1  0  0  0  0
  7  8  1  0  0  0  0
  8  9  1  0  0  0  0
  8 50  1  0  0  0  0
  8 51  1  0  0  0  0
  9 15  1  0  0  0  0
  9 28  1  0  0  0  0
  9 10  1  0  0  0  0
 10 11  2  0  0  0  0
 10 12  1  0  0  0  0
 12 13  2  0  0  0  0
 12 24  1  0  0  0  0
 13 14  1  0  0  0  0
 13 25  1  0  0  0  0
 14 15  1  0  0  0  0
 14 18  1  0  0  0  0
 14 20  1  0  0  0  0
 15 16  1  0  0  0  0
 15 26  1  0  0  0  0
 16 17  1  0  0  0  0
 16 30  1  0  0  0  0
 16 31  1  0  0  0  0
 17 18  1  0  0  0  0
 17 32  1  0  0  0  0
 17 33  1  0  0  0  0
 18 19  1  0  0  0  0
 18 21  1  0  0  0  0
 19 29  1  0  0  0  0
 20 23  1  0  0  0  0
 20 34  1  0  0  0  0
 20 35  1  0  0  0  0
 21 36  1  0  0  0  0
 21 37  1  0  0  0  0
 21 22  1  0  0  0  0
 22 38  1  0  0  0  0
 22 39  1  0  0  0  0
 22 40  1  0  0  0  0
 23 41  1  0  0  0  0
 23 42  1  0  0  0  0
 23 43  1  0  0  0  0
M  END
$$$$
