2AX6_hydroxyflutamide - preprocessed
                    3D
 Schrodinger Suite 2021-1.
 31 31  0  0  1  0            999 V2000
   23.3731    2.1393    4.6438 F   0  0  0  0  0  0
   23.5216    3.4545    4.7698 C   0  0  0  0  0  0
   23.1590    3.7613    6.0121 F   0  0  0  0  0  0
   22.6642    3.9956    3.9091 F   0  0  0  0  0  0
   24.9741    3.8944    4.5046 C   0  0  0  0  0  0
   25.9808    2.9254    4.4856 C   0  0  0  0  0  0
   25.3334    5.2167    4.2289 C   0  0  0  0  0  0
   24.5080    6.2550    4.3645 N   0  3  0  0  0  0
   24.9446    7.5480    3.9702 O   0  5  0  0  0  0
   23.1767    6.1328    4.8421 O   0  0  0  0  0  0
   26.6566    5.5266    3.9256 C   0  0  0  0  0  0
   27.6425    4.5464    3.9068 C   0  0  0  0  0  0
   27.3083    3.2283    4.1943 C   0  0  0  0  0  0
   28.2927    2.3281    4.2025 N   0  0  0  0  0  0
   28.1833    1.0319    4.4862 C   0  0  0  0  0  0
   27.1362    0.4641    4.7961 O   0  0  0  0  0  0
   29.5021    0.2574    4.4119 C   0  0  0  0  0  0
   29.8811   -0.2180    5.8155 C   0  0  0  0  0  0
   29.3232   -0.9431    3.4802 C   0  0  0  0  0  0
   30.5182    1.1252    3.9036 O   0  0  0  0  0  0
   25.7424    1.8946    4.7025 H   0  0  0  0  0  0
   26.9343    6.5453    3.6988 H   0  0  0  0  0  0
   28.6624    4.8108    3.6696 H   0  0  0  0  0  0
   29.2362    2.6095    3.9773 H   0  0  0  0  0  0
   30.8196   -0.7707    5.7714 H   0  0  0  0  0  0
   29.9982    0.6439    6.4724 H   0  0  0  0  0  0
   29.0961   -0.8666    6.2044 H   0  0  0  0  0  0
   30.2581   -1.5005    3.4214 H   0  0  0  0  0  0
   28.5380   -1.5915    3.8688 H   0  0  0  0  0  0
   29.0460   -0.5936    2.4856 H   0  0  0  0  0  0
   31.3503    0.6490    3.8528 H   0  0  0  0  0  0
  1  2  1  0  0  0
  2  3  1  0  0  0
  2  4  1  0  0  0
  2  5  1  0  0  0
  5  6  2  0  0  0
  5  7  1  0  0  0
  6 13  1  0  0  0
  6 21  1  0  0  0
  7  8  1  0  0  0
  7 11  2  0  0  0
  8  9  1  0  0  0
  8 10  2  0  0  0
 11 12  1  0  0  0
 11 22  1  0  0  0
 12 13  2  0  0  0
 12 23  1  0  0  0
 13 14  1  0  0  0
 14 15  1  0  0  0
 14 24  1  0  0  0
 15 16  2  0  0  0
 15 17  1  0  0  0
 17 18  1  0  0  0
 17 19  1  0  0  0
 17 20  1  0  0  0
 18 25  1  0  0  0
 18 26  1  0  0  0
 18 27  1  0  0  0
 19 28  1  0  0  0
 19 29  1  0  0  0
 19 30  1  0  0  0
 20 31  1  0  0  0
M  CHG  2   8   1   9  -1
M  END
> <i_m_stars>
0

> <s_m_entry_id>
17

> <s_m_entry_name>
Structure10

> <s_pdb_PDB_TITLE>
CRYSTAL STRUCTURE OF THE ANDROGEN RECEPTOR LIGAND BINDING DOMAIN T877A MUTANT IN COMPLEX WITH HYDROXYFLUTAMIDE

> <s_pdb_PDB_ID>
2AX6

> <r_pdb_PDB_CRYST1_a>
54.782

> <r_pdb_PDB_CRYST1_b>
65.965

> <r_pdb_PDB_CRYST1_c>
69.628

> <r_pdb_PDB_CRYST1_alpha>
90

> <r_pdb_PDB_CRYST1_beta>
90

> <r_pdb_PDB_CRYST1_gamma>
90

> <s_pdb_PDB_CRYST1_Space_Group>
P 21 21 21

> <i_pdb_PDB_CRYST1_z>
4

> <s_pdb_PDB_CLASSIFICATION>
TRANSCRIPTION

> <s_pdb_PDB_DEPOSITION_DATE>
03-SEP-05

> <s_pdb_PDB_format_version>
3.30

> <r_pdb_PDB_R>
0.246

> <r_pdb_PDB_Rfree>
0.274

> <r_pdb_PDB_RESOLUTION>
1.5

> <s_pdb_PDB_EXPDTA>
X-RAY DIFFRACTION

> <r_pdb_PDB_EXPDTA_TEMPERATURE>
95

> <r_pdb_PDB_EXPDTA_PH>
7.5

> <s_pdb_PDB_REMARK_350_Biomolecule_1_Transform_1_Chains>
A

> <s_pdb_PDB_REMARK_350_Biomolecule_1_Transform_1_Matrix_1>
1.000000 0.000000 0.000000   0.000000;0.000000 1.000000 0.000000   0.000000;0.000000 0.000000 1.000000   0.000000

> <s_m_Source_Path>
/home/unibas/Dropbox/Studium/PhD/Documents/teaching/MMiDD/github/MolecularDocking/tmp

> <s_m_Source_File>
2AX6.pdb

> <i_m_Source_File_Index>
1

> <s_ppw_entry_id_backup>
10

> <b_ppw_prepared>
1

> <s_ppw_prepared_with_version>
2021-1

> <b_ppw_assigned_bond_orders>
1

> <b_ppw_added_hydrogens>
1

> <s_ppw_het_states>
eJxNkLsOgkAQRX9lQg26w0NenZWtsSQUBKlEsMDCEP7dmc3cAIX37Ew43mUNOKiokYdDcm1ITWyZWKaWmeXFMrcsLEtLdgAYGUqGkyFlWBlahpchZphjb1bSsiJl65vsmO6YGUqKPDbMbSojxnsyK3bU3rHdrLSxrp2Ndc/4dw8JNipEAw/o4AEt/AE9PBTHQ3k46JVZrxy5k+C6yRdQCB5Ltwz0GaZuXH6VXzt69d14fs9jTbfoOk9P6ufvtFTkarrLb9C22x/6hmyB

$$$$
