


 31 32  0  0  0  0  0  0  0  0999 V2000
   28.4467    1.5235    5.6306 C   0  0  0  0  0  0  0  0  0  0  0  0
   27.5647    1.7688    6.5105 O   0  0  0  0  0  0  0  0  0  0  0  0
   28.5149    2.4184    4.5396 N   0  0  0  0  0  0  0  0  0  0  0  0
   29.2396    2.2261    3.8063 H   0  0  0  0  0  0  0  0  0  0  0  0
   27.6562    3.5522    4.3945 C   0  0  0  0  0  0  0  0  0  0  0  0
   28.2381    4.6972    3.8892 C   0  0  0  0  0  0  0  0  0  0  0  0
   27.5052    5.8520    3.7065 C   0  0  0  0  0  0  0  0  0  0  0  0
   26.1633    5.8639    4.0350 C   0  0  0  0  0  0  0  0  0  0  0  0
   25.6064    4.6982    4.5407 C   0  0  0  0  0  0  0  0  0  0  0  0
   26.3359    3.5413    4.7250 C   0  0  0  0  0  0  0  0  0  0  0  0
   24.1625    4.7400    4.8851 C   0  0  0  0  0  0  0  0  0  0  0  0
   23.8370    5.9009    5.5678 F   0  0  0  0  0  0  0  0  0  0  0  0
   23.3661    4.6857    3.7640 F   0  0  0  0  0  0  0  0  0  0  0  0
   23.8776    3.6938    5.7678 F   0  0  0  0  0  0  0  0  0  0  0  0
   25.3682    7.0518    3.8574 C   0  0  0  0  0  0  0  0  0  0  0  0
   24.7351    8.0277    3.7153 N   0  0  0  0  0  0  0  0  0  0  0  0
   30.5778    0.8311    6.5145 C   0  0  0  0  0  0  0  0  0  0  0  0
   29.3179    0.3526    5.8007 C   0  0  0  0  0  0  0  0  0  0  0  0
   28.7171   -0.6135    6.5937 O   0  0  0  0  0  0  0  0  0  0  0  0
   27.9108   -0.9406    6.1285 H   0  0  0  0  0  0  0  0  0  0  0  0
   29.7299   -0.2660    4.4906 C   0  0  0  0  0  0  0  0  0  0  0  0
   28.4300   -1.2725    3.8272 S   0  0  0  0  0  0  0  0  0  0  0  0
   28.8164   -1.7997    2.4759 O   0  0  0  0  0  0  0  0  0  0  0  0
   28.2431   -2.4485    4.7533 O   0  0  0  0  0  0  0  0  0  0  0  0
   26.9570   -0.3434    3.6658 C   0  0  0  0  0  0  0  0  0  0  0  0
   26.7365    0.5216    2.6064 C   0  0  0  0  0  0  0  0  0  0  0  0
   25.5537    1.2410    2.5147 C   0  0  0  0  0  0  0  0  0  0  0  0
   24.5612    1.1238    3.4659 C   0  0  0  0  0  0  0  0  0  0  0  0
   24.7750    0.2661    4.5201 C   0  0  0  0  0  0  0  0  0  0  0  0
   25.9531   -0.4439    4.6020 C   0  0  0  0  0  0  0  0  0  0  0  0
   23.3952    1.8435    3.3609 F   0  0  0  0  0  0  0  0  0  0  0  0
 17 18  1  0  0  0
 18 21  1  0  0  0
 21 22  1  0  0  0
 22 23  2  0  0  0
 22 24  2  0  0  0
 22 25  1  0  0  0
 25 26  2  0  0  0
 26 27  1  0  0  0
 27 28  2  0  0  0
 28 29  1  0  0  0
 29 30  2  0  0  0
 28 31  1  0  0  0
 18  1  1  0  0  0
  1  2  2  0  0  0
  1  3  1  0  0  0
  3  5  1  0  0  0
  5  6  2  0  0  0
  6  7  1  0  0  0
  7  8  2  0  0  0
  8  9  1  0  0  0
  9 10  2  0  0  0
  9 11  1  0  0  0
 11 12  1  0  0  0
 11 13  1  0  0  0
 11 14  1  0  0  0
  8 15  1  0  0  0
 15 16  3  0  0  0
 18 19  1  0  0  0
 30 25  1  0  0  0
 10  5  1  0  0  0
  3  4  1  0  0  0
 19 20  1  0  0  0
M  END
> <minimizedAffinity>
-7.90196

$$$$



 31 32  0  0  0  0  0  0  0  0999 V2000
   26.4377    0.0632    3.9730 C   0  0  0  0  0  0  0  0  0  0  0  0
   26.3387    0.5628    2.8099 O   0  0  0  0  0  0  0  0  0  0  0  0
   26.1275    0.9174    5.0546 N   0  0  0  0  0  0  0  0  0  0  0  0
   26.2056    0.5160    6.0204 H   0  0  0  0  0  0  0  0  0  0  0  0
   25.7197    2.2782    4.8933 C   0  0  0  0  0  0  0  0  0  0  0  0
   24.4485    2.5899    5.3315 C   0  0  0  0  0  0  0  0  0  0  0  0
   23.9493    3.8720    5.2258 C   0  0  0  0  0  0  0  0  0  0  0  0
   24.7354    4.8634    4.6711 C   0  0  0  0  0  0  0  0  0  0  0  0
   26.0085    4.5200    4.2397 C   0  0  0  0  0  0  0  0  0  0  0  0
   26.5115    3.2391    4.3436 C   0  0  0  0  0  0  0  0  0  0  0  0
   26.8309    5.6055    3.6478 C   0  0  0  0  0  0  0  0  0  0  0  0
   26.1676    6.2347    2.6068 F   0  0  0  0  0  0  0  0  0  0  0  0
   27.1496    6.5713    4.5752 F   0  0  0  0  0  0  0  0  0  0  0  0
   27.9773    5.0445    3.0771 F   0  0  0  0  0  0  0  0  0  0  0  0
   24.2462    6.2124    4.5452 C   0  0  0  0  0  0  0  0  0  0  0  0
   23.8639    7.3152    4.4392 N   0  0  0  0  0  0  0  0  0  0  0  0
   27.5526   -1.4626    5.4668 C   0  0  0  0  0  0  0  0  0  0  0  0
   26.8586   -1.3374    4.1146 C   0  0  0  0  0  0  0  0  0  0  0  0
   25.7691   -2.1955    4.1113 O   0  0  0  0  0  0  0  0  0  0  0  0
   25.3264   -2.1328    3.2318 H   0  0  0  0  0  0  0  0  0  0  0  0
   27.8323   -1.7668    3.0485 C   0  0  0  0  0  0  0  0  0  0  0  0
   29.5009   -1.4169    3.5347 S   0  0  0  0  0  0  0  0  0  0  0  0
   30.0573   -2.5523    4.3440 O   0  0  0  0  0  0  0  0  0  0  0  0
   30.3265   -1.2876    2.2789 O   0  0  0  0  0  0  0  0  0  0  0  0
   29.5658    0.0417    4.4975 C   0  0  0  0  0  0  0  0  0  0  0  0
   29.4909    1.3062    3.9366 C   0  0  0  0  0  0  0  0  0  0  0  0
   29.5461    2.4391    4.7355 C   0  0  0  0  0  0  0  0  0  0  0  0
   29.6765    2.3509    6.1061 C   0  0  0  0  0  0  0  0  0  0  0  0
   29.7514    1.0976    6.6685 C   0  0  0  0  0  0  0  0  0  0  0  0
   29.6955   -0.0214    5.8663 C   0  0  0  0  0  0  0  0  0  0  0  0
   29.7299    3.4827    6.8838 F   0  0  0  0  0  0  0  0  0  0  0  0
 17 18  1  0  0  0
 18 21  1  0  0  0
 21 22  1  0  0  0
 22 23  2  0  0  0
 22 24  2  0  0  0
 22 25  1  0  0  0
 25 26  2  0  0  0
 26 27  1  0  0  0
 27 28  2  0  0  0
 28 29  1  0  0  0
 29 30  2  0  0  0
 28 31  1  0  0  0
 18  1  1  0  0  0
  1  2  2  0  0  0
  1  3  1  0  0  0
  3  5  1  0  0  0
  5  6  2  0  0  0
  6  7  1  0  0  0
  7  8  2  0  0  0
  8  9  1  0  0  0
  9 10  2  0  0  0
  9 11  1  0  0  0
 11 12  1  0  0  0
 11 13  1  0  0  0
 11 14  1  0  0  0
  8 15  1  0  0  0
 15 16  3  0  0  0
 18 19  1  0  0  0
 30 25  1  0  0  0
 10  5  1  0  0  0
  3  4  1  0  0  0
 19 20  1  0  0  0
M  END
> <minimizedAffinity>
-7.49417

$$$$



 31 32  0  0  0  0  0  0  0  0999 V2000
   28.6122    1.3335    5.4609 C   0  0  0  0  0  0  0  0  0  0  0  0
   29.2201    2.2482    4.8236 O   0  0  0  0  0  0  0  0  0  0  0  0
   27.2571    1.5786    5.7764 N   0  0  0  0  0  0  0  0  0  0  0  0
   26.7444    0.8302    6.3027 H   0  0  0  0  0  0  0  0  0  0  0  0
   26.5679    2.7784    5.4165 C   0  0  0  0  0  0  0  0  0  0  0  0
   25.2530    2.8723    5.8253 C   0  0  0  0  0  0  0  0  0  0  0  0
   24.4905    3.9850    5.5340 C   0  0  0  0  0  0  0  0  0  0  0  0
   25.0526    5.0256    4.8200 C   0  0  0  0  0  0  0  0  0  0  0  0
   26.3762    4.9026    4.4227 C   0  0  0  0  0  0  0  0  0  0  0  0
   27.1421    3.7915    4.7119 C   0  0  0  0  0  0  0  0  0  0  0  0
   26.9540    6.0360    3.6568 C   0  0  0  0  0  0  0  0  0  0  0  0
   28.1958    5.7142    3.1335 F   0  0  0  0  0  0  0  0  0  0  0  0
   26.1484    6.4074    2.6045 F   0  0  0  0  0  0  0  0  0  0  0  0
   27.1808    7.1035    4.5307 F   0  0  0  0  0  0  0  0  0  0  0  0
   24.2860    6.2018    4.4984 C   0  0  0  0  0  0  0  0  0  0  0  0
   23.6716    7.1679    4.2476 N   0  0  0  0  0  0  0  0  0  0  0  0
   30.4621    0.5170    6.7699 C   0  0  0  0  0  0  0  0  0  0  0  0
   29.3407    0.1091    5.8201 C   0  0  0  0  0  0  0  0  0  0  0  0
   28.5211   -0.7897    6.4862 O   0  0  0  0  0  0  0  0  0  0  0  0
   27.8036   -1.0718    5.8704 H   0  0  0  0  0  0  0  0  0  0  0  0
   29.9621   -0.5731    4.6297 C   0  0  0  0  0  0  0  0  0  0  0  0
   28.7688   -1.5652    3.7723 S   0  0  0  0  0  0  0  0  0  0  0  0
   29.3188   -2.0162    2.4503 O   0  0  0  0  0  0  0  0  0  0  0  0
   28.5030   -2.7899    4.6119 O   0  0  0  0  0  0  0  0  0  0  0  0
   27.3040   -0.6528    3.4878 C   0  0  0  0  0  0  0  0  0  0  0  0
   26.1118   -0.9420    4.1312 C   0  0  0  0  0  0  0  0  0  0  0  0
   24.9712   -0.1938    3.8776 C   0  0  0  0  0  0  0  0  0  0  0  0
   24.9805    0.8568    2.9834 C   0  0  0  0  0  0  0  0  0  0  0  0
   26.1619    1.1484    2.3415 C   0  0  0  0  0  0  0  0  0  0  0  0
   27.2892    0.3992    2.6005 C   0  0  0  0  0  0  0  0  0  0  0  0
   23.8422    1.5884    2.7430 F   0  0  0  0  0  0  0  0  0  0  0  0
 17 18  1  0  0  0
 18 21  1  0  0  0
 21 22  1  0  0  0
 22 23  2  0  0  0
 22 24  2  0  0  0
 22 25  1  0  0  0
 25 26  2  0  0  0
 26 27  1  0  0  0
 27 28  2  0  0  0
 28 29  1  0  0  0
 29 30  2  0  0  0
 28 31  1  0  0  0
 18  1  1  0  0  0
  1  2  2  0  0  0
  1  3  1  0  0  0
  3  5  1  0  0  0
  5  6  2  0  0  0
  6  7  1  0  0  0
  7  8  2  0  0  0
  8  9  1  0  0  0
  9 10  2  0  0  0
  9 11  1  0  0  0
 11 12  1  0  0  0
 11 13  1  0  0  0
 11 14  1  0  0  0
  8 15  1  0  0  0
 15 16  3  0  0  0
 18 19  1  0  0  0
 30 25  1  0  0  0
 10  5  1  0  0  0
  3  4  1  0  0  0
 19 20  1  0  0  0
M  END
> <minimizedAffinity>
-7.43496

$$$$



 31 32  0  0  0  0  0  0  0  0999 V2000
   28.6460    1.4075    4.4355 C   0  0  0  0  0  0  0  0  0  0  0  0
   28.6097    1.7126    3.2035 O   0  0  0  0  0  0  0  0  0  0  0  0
   28.0013    2.2963    5.3244 N   0  0  0  0  0  0  0  0  0  0  0  0
   28.0246    2.0549    6.3448 H   0  0  0  0  0  0  0  0  0  0  0  0
   27.3318    3.4868    4.9021 C   0  0  0  0  0  0  0  0  0  0  0  0
   28.1119    4.4336    4.2697 C   0  0  0  0  0  0  0  0  0  0  0  0
   27.5724    5.6212    3.8197 C   0  0  0  0  0  0  0  0  0  0  0  0
   26.2259    5.8688    4.0049 C   0  0  0  0  0  0  0  0  0  0  0  0
   25.4673    4.8987    4.6438 C   0  0  0  0  0  0  0  0  0  0  0  0
   26.0030    3.7097    5.0953 C   0  0  0  0  0  0  0  0  0  0  0  0
   24.0233    5.1917    4.8292 C   0  0  0  0  0  0  0  0  0  0  0  0
   23.8270    6.4477    5.3801 F   0  0  0  0  0  0  0  0  0  0  0  0
   23.3352    5.1535    3.6379 F   0  0  0  0  0  0  0  0  0  0  0  0
   23.4940    4.2889    5.7563 F   0  0  0  0  0  0  0  0  0  0  0  0
   25.6294    7.0977    3.5479 C   0  0  0  0  0  0  0  0  0  0  0  0
   25.1551    8.1064    3.1857 N   0  0  0  0  0  0  0  0  0  0  0  0
   29.8664   -0.4838    3.5778 C   0  0  0  0  0  0  0  0  0  0  0  0
   29.3398    0.1792    4.8463 C   0  0  0  0  0  0  0  0  0  0  0  0
   30.4239    0.4604    5.6642 O   0  0  0  0  0  0  0  0  0  0  0  0
   30.0879    0.8730    6.4951 H   0  0  0  0  0  0  0  0  0  0  0  0
   28.4327   -0.8007    5.5432 C   0  0  0  0  0  0  0  0  0  0  0  0
   27.1912   -1.4143    4.4363 S   0  0  0  0  0  0  0  0  0  0  0  0
   27.7821   -1.6708    3.0804 O   0  0  0  0  0  0  0  0  0  0  0  0
   26.6947   -2.7278    4.9875 O   0  0  0  0  0  0  0  0  0  0  0  0
   25.8910   -0.2562    4.2708 C   0  0  0  0  0  0  0  0  0  0  0  0
   25.1322    0.1681    5.3492 C   0  0  0  0  0  0  0  0  0  0  0  0
   24.1088    1.0888    5.1758 C   0  0  0  0  0  0  0  0  0  0  0  0
   23.8105    1.6121    3.9346 C   0  0  0  0  0  0  0  0  0  0  0  0
   24.5610    1.1942    2.8600 C   0  0  0  0  0  0  0  0  0  0  0  0
   25.5753    0.2793    3.0428 C   0  0  0  0  0  0  0  0  0  0  0  0
   22.7935    2.5233    3.7792 F   0  0  0  0  0  0  0  0  0  0  0  0
 17 18  1  0  0  0
 18 21  1  0  0  0
 21 22  1  0  0  0
 22 23  2  0  0  0
 22 24  2  0  0  0
 22 25  1  0  0  0
 25 26  2  0  0  0
 26 27  1  0  0  0
 27 28  2  0  0  0
 28 29  1  0  0  0
 29 30  2  0  0  0
 28 31  1  0  0  0
 18  1  1  0  0  0
  1  2  2  0  0  0
  1  3  1  0  0  0
  3  5  1  0  0  0
  5  6  2  0  0  0
  6  7  1  0  0  0
  7  8  2  0  0  0
  8  9  1  0  0  0
  9 10  2  0  0  0
  9 11  1  0  0  0
 11 12  1  0  0  0
 11 13  1  0  0  0
 11 14  1  0  0  0
  8 15  1  0  0  0
 15 16  3  0  0  0
 18 19  1  0  0  0
 30 25  1  0  0  0
 10  5  1  0  0  0
  3  4  1  0  0  0
 19 20  1  0  0  0
M  END
> <minimizedAffinity>
-6.45705

$$$$



 31 32  0  0  0  0  0  0  0  0999 V2000
   27.6801    0.6519    2.6080 C   0  0  0  0  0  0  0  0  0  0  0  0
   26.4243    0.4731    2.5525 O   0  0  0  0  0  0  0  0  0  0  0  0
   28.1175    1.9247    3.0374 N   0  0  0  0  0  0  0  0  0  0  0  0
   29.1529    2.0843    3.0872 H   0  0  0  0  0  0  0  0  0  0  0  0
   27.2280    2.9836    3.3998 C   0  0  0  0  0  0  0  0  0  0  0  0
   27.7263    4.2655    3.2831 C   0  0  0  0  0  0  0  0  0  0  0  0
   26.9569    5.3647    3.6053 C   0  0  0  0  0  0  0  0  0  0  0  0
   25.6630    5.1804    4.0531 C   0  0  0  0  0  0  0  0  0  0  0  0
   25.1899    3.8806    4.1601 C   0  0  0  0  0  0  0  0  0  0  0  0
   25.9561    2.7786    3.8390 C   0  0  0  0  0  0  0  0  0  0  0  0
   23.7961    3.7126    4.6440 C   0  0  0  0  0  0  0  0  0  0  0  0
   23.6756    4.0677    5.9778 F   0  0  0  0  0  0  0  0  0  0  0  0
   22.9089    4.4865    3.9311 F   0  0  0  0  0  0  0  0  0  0  0  0
   23.4570    2.3575    4.5849 F   0  0  0  0  0  0  0  0  0  0  0  0
   24.8318    6.3051    4.3983 C   0  0  0  0  0  0  0  0  0  0  0  0
   24.1452    7.2163    4.6662 N   0  0  0  0  0  0  0  0  0  0  0  0
   28.5358   -0.5597    0.7100 C   0  0  0  0  0  0  0  0  0  0  0  0
   28.5751   -0.4507    2.2307 C   0  0  0  0  0  0  0  0  0  0  0  0
   29.8841   -0.1908    2.6077 O   0  0  0  0  0  0  0  0  0  0  0  0
   29.9196   -0.1374    3.5923 H   0  0  0  0  0  0  0  0  0  0  0  0
   28.1464   -1.7755    2.8051 C   0  0  0  0  0  0  0  0  0  0  0  0
   28.8164   -2.0096    4.4297 S   0  0  0  0  0  0  0  0  0  0  0  0
   27.9350   -2.9234    5.2306 O   0  0  0  0  0  0  0  0  0  0  0  0
   30.1637   -2.6712    4.2788 O   0  0  0  0  0  0  0  0  0  0  0  0
   28.9441   -0.4791    5.2665 C   0  0  0  0  0  0  0  0  0  0  0  0
   27.8469    0.1565    5.8244 C   0  0  0  0  0  0  0  0  0  0  0  0
   27.9903    1.3706    6.4804 C   0  0  0  0  0  0  0  0  0  0  0  0
   29.2193    1.9856    6.6013 C   0  0  0  0  0  0  0  0  0  0  0  0
   30.3124    1.3589    6.0490 C   0  0  0  0  0  0  0  0  0  0  0  0
   30.1594    0.1532    5.3994 C   0  0  0  0  0  0  0  0  0  0  0  0
   29.3449    3.1884    7.2541 F   0  0  0  0  0  0  0  0  0  0  0  0
 17 18  1  0  0  0
 18 21  1  0  0  0
 21 22  1  0  0  0
 22 23  2  0  0  0
 22 24  2  0  0  0
 22 25  1  0  0  0
 25 26  2  0  0  0
 26 27  1  0  0  0
 27 28  2  0  0  0
 28 29  1  0  0  0
 29 30  2  0  0  0
 28 31  1  0  0  0
 18  1  1  0  0  0
  1  2  2  0  0  0
  1  3  1  0  0  0
  3  5  1  0  0  0
  5  6  2  0  0  0
  6  7  1  0  0  0
  7  8  2  0  0  0
  8  9  1  0  0  0
  9 10  2  0  0  0
  9 11  1  0  0  0
 11 12  1  0  0  0
 11 13  1  0  0  0
 11 14  1  0  0  0
  8 15  1  0  0  0
 15 16  3  0  0  0
 18 19  1  0  0  0
 30 25  1  0  0  0
 10  5  1  0  0  0
  3  4  1  0  0  0
 19 20  1  0  0  0
M  END
> <minimizedAffinity>
-5.74052

$$$$



 31 32  0  0  0  0  0  0  0  0999 V2000
   26.2752    0.9579    3.5132 C   0  0  0  0  0  0  0  0  0  0  0  0
   25.8360    1.4466    2.4266 O   0  0  0  0  0  0  0  0  0  0  0  0
   26.5382    1.8741    4.5558 N   0  0  0  0  0  0  0  0  0  0  0  0
   26.9014    1.4822    5.4583 H   0  0  0  0  0  0  0  0  0  0  0  0
   26.3349    3.2842    4.4368 C   0  0  0  0  0  0  0  0  0  0  0  0
   27.4703    4.0529    4.2783 C   0  0  0  0  0  0  0  0  0  0  0  0
   27.3942    5.4250    4.1535 C   0  0  0  0  0  0  0  0  0  0  0  0
   26.1589    6.0427    4.1876 C   0  0  0  0  0  0  0  0  0  0  0  0
   25.0358    5.2441    4.3481 C   0  0  0  0  0  0  0  0  0  0  0  0
   25.1076    3.8716    4.4733 C   0  0  0  0  0  0  0  0  0  0  0  0
   23.7217    5.9348    4.3812 C   0  0  0  0  0  0  0  0  0  0  0  0
   23.4895    6.6402    3.2115 F   0  0  0  0  0  0  0  0  0  0  0  0
   22.6805    5.0489    4.5403 F   0  0  0  0  0  0  0  0  0  0  0  0
   23.7399    6.8929    5.3993 F   0  0  0  0  0  0  0  0  0  0  0  0
   26.0425    7.4727    4.0605 C   0  0  0  0  0  0  0  0  0  0  0  0
   25.9310    8.6346    3.9552 N   0  0  0  0  0  0  0  0  0  0  0  0
   26.8233   -0.8004    5.0657 C   0  0  0  0  0  0  0  0  0  0  0  0
   26.4764   -0.4942    3.6125 C   0  0  0  0  0  0  0  0  0  0  0  0
   25.3188   -1.1879    3.2932 O   0  0  0  0  0  0  0  0  0  0  0  0
   25.0992   -1.0085    2.3482 H   0  0  0  0  0  0  0  0  0  0  0  0
   27.6065   -0.9892    2.7484 C   0  0  0  0  0  0  0  0  0  0  0  0
   29.0758   -1.2414    3.7079 S   0  0  0  0  0  0  0  0  0  0  0  0
   28.9303   -2.4586    4.5744 O   0  0  0  0  0  0  0  0  0  0  0  0
   30.2141   -1.4827    2.7480 O   0  0  0  0  0  0  0  0  0  0  0  0
   29.3837    0.1421    4.7326 C   0  0  0  0  0  0  0  0  0  0  0  0
   29.8130    1.3590    4.2288 C   0  0  0  0  0  0  0  0  0  0  0  0
   30.0463    2.4329    5.0757 C   0  0  0  0  0  0  0  0  0  0  0  0
   29.8614    2.3312    6.4391 C   0  0  0  0  0  0  0  0  0  0  0  0
   29.4351    1.1249    6.9449 C   0  0  0  0  0  0  0  0  0  0  0  0
   29.2062    0.0643    6.0953 C   0  0  0  0  0  0  0  0  0  0  0  0
   30.0969    3.4042    7.2648 F   0  0  0  0  0  0  0  0  0  0  0  0
 17 18  1  0  0  0
 18 21  1  0  0  0
 21 22  1  0  0  0
 22 23  2  0  0  0
 22 24  2  0  0  0
 22 25  1  0  0  0
 25 26  2  0  0  0
 26 27  1  0  0  0
 27 28  2  0  0  0
 28 29  1  0  0  0
 29 30  2  0  0  0
 28 31  1  0  0  0
 18  1  1  0  0  0
  1  2  2  0  0  0
  1  3  1  0  0  0
  3  5  1  0  0  0
  5  6  2  0  0  0
  6  7  1  0  0  0
  7  8  2  0  0  0
  8  9  1  0  0  0
  9 10  2  0  0  0
  9 11  1  0  0  0
 11 12  1  0  0  0
 11 13  1  0  0  0
 11 14  1  0  0  0
  8 15  1  0  0  0
 15 16  3  0  0  0
 18 19  1  0  0  0
 30 25  1  0  0  0
 10  5  1  0  0  0
  3  4  1  0  0  0
 19 20  1  0  0  0
M  END
> <minimizedAffinity>
-4.95206

$$$$



 31 32  0  0  0  0  0  0  0  0999 V2000
   27.0126    4.0875    3.9015 C   0  0  0  0  0  0  0  0  0  0  0  0
   27.1005    3.6198    2.7242 O   0  0  0  0  0  0  0  0  0  0  0  0
   27.5920    3.3141    4.9320 N   0  0  0  0  0  0  0  0  0  0  0  0
   27.5256    3.6902    5.9088 H   0  0  0  0  0  0  0  0  0  0  0  0
   28.2517    2.0662    4.7060 C   0  0  0  0  0  0  0  0  0  0  0  0
   29.0017    1.5740    5.7549 C   0  0  0  0  0  0  0  0  0  0  0  0
   29.6819    0.3781    5.6494 C   0  0  0  0  0  0  0  0  0  0  0  0
   29.6120   -0.3415    4.4722 C   0  0  0  0  0  0  0  0  0  0  0  0
   28.8506    0.1784    3.4355 C   0  0  0  0  0  0  0  0  0  0  0  0
   28.1688    1.3739    3.5369 C   0  0  0  0  0  0  0  0  0  0  0  0
   28.7935   -0.6162    2.1823 C   0  0  0  0  0  0  0  0  0  0  0  0
   27.8156   -0.1405    1.3238 F   0  0  0  0  0  0  0  0  0  0  0  0
   29.9888   -0.5854    1.5007 F   0  0  0  0  0  0  0  0  0  0  0  0
   28.4144   -1.9254    2.4936 F   0  0  0  0  0  0  0  0  0  0  0  0
   30.3094   -1.5935    4.3273 C   0  0  0  0  0  0  0  0  0  0  0  0
   30.8621   -2.6199    4.2066 N   0  0  0  0  0  0  0  0  0  0  0  0
   27.3870    6.3728    4.5642 C   0  0  0  0  0  0  0  0  0  0  0  0
   26.3299    5.3718    4.1098 C   0  0  0  0  0  0  0  0  0  0  0  0
   25.7711    5.8442    2.9318 O   0  0  0  0  0  0  0  0  0  0  0  0
   25.0731    5.2098    2.6422 H   0  0  0  0  0  0  0  0  0  0  0  0
   25.2646    5.3031    5.1724 C   0  0  0  0  0  0  0  0  0  0  0  0
   23.9052    4.2951    4.6439 S   0  0  0  0  0  0  0  0  0  0  0  0
   22.7837    4.3685    5.6392 O   0  0  0  0  0  0  0  0  0  0  0  0
   23.4057    4.8500    3.3331 O   0  0  0  0  0  0  0  0  0  0  0  0
   24.4047    2.6266    4.4849 C   0  0  0  0  0  0  0  0  0  0  0  0
   24.7601    1.8502    5.5757 C   0  0  0  0  0  0  0  0  0  0  0  0
   25.1510    0.5297    5.4071 C   0  0  0  0  0  0  0  0  0  0  0  0
   25.2003   -0.0554    4.1586 C   0  0  0  0  0  0  0  0  0  0  0  0
   24.8485    0.7112    3.0717 C   0  0  0  0  0  0  0  0  0  0  0  0
   24.4616    2.0218    3.2498 C   0  0  0  0  0  0  0  0  0  0  0  0
   25.5898   -1.3647    4.0081 F   0  0  0  0  0  0  0  0  0  0  0  0
 17 18  1  0  0  0
 18 21  1  0  0  0
 21 22  1  0  0  0
 22 23  2  0  0  0
 22 24  2  0  0  0
 22 25  1  0  0  0
 25 26  2  0  0  0
 26 27  1  0  0  0
 27 28  2  0  0  0
 28 29  1  0  0  0
 29 30  2  0  0  0
 28 31  1  0  0  0
 18  1  1  0  0  0
  1  2  2  0  0  0
  1  3  1  0  0  0
  3  5  1  0  0  0
  5  6  2  0  0  0
  6  7  1  0  0  0
  7  8  2  0  0  0
  8  9  1  0  0  0
  9 10  2  0  0  0
  9 11  1  0  0  0
 11 12  1  0  0  0
 11 13  1  0  0  0
 11 14  1  0  0  0
  8 15  1  0  0  0
 15 16  3  0  0  0
 18 19  1  0  0  0
 30 25  1  0  0  0
 10  5  1  0  0  0
  3  4  1  0  0  0
 19 20  1  0  0  0
M  END
> <minimizedAffinity>
-4.94798

$$$$
