


 22 25  0  0  0  0  0  0  0  0999 V2000
   26.2919    3.7220    5.5890 C   0  0  0  0  0  0  0  0  0  0  0  0
   25.9884    3.4543    4.1692 C   0  0  0  0  0  0  0  0  0  0  0  0
   26.5352    4.5812    3.2758 C   0  0  0  0  0  0  0  0  0  0  0  0
   25.8394    5.9218    3.3717 C   0  0  0  0  0  0  0  0  0  0  0  0
   24.8649    5.8711    4.4532 C   0  0  0  0  0  0  0  0  0  0  0  0
   24.7888    6.7621    5.2708 O   0  0  0  0  0  0  0  0  0  0  0  0
   23.9391    4.7466    4.5875 C   0  0  0  0  0  0  0  0  0  0  0  0
   24.4874    3.4471    3.8998 C   0  0  0  0  0  0  0  0  0  0  0  0
   23.8480    2.3578    4.6250 C   0  0  0  0  0  0  0  0  0  0  0  0
   24.4219    1.0334    4.2478 C   0  0  0  0  0  0  0  0  0  0  0  0
   25.9120    1.0199    4.5414 C   0  0  0  0  0  0  0  0  0  0  0  0
   26.5482    2.1311    3.6968 C   0  0  0  0  0  0  0  0  0  0  0  0
   28.0410    2.0463    3.6816 C   0  0  0  0  0  0  0  0  0  0  0  0
   28.5430    0.7134    3.1813 C   0  0  0  0  0  0  0  0  0  0  0  0
   27.9813   -0.3518    4.1144 C   0  0  0  0  0  0  0  0  0  0  0  0
   26.5015   -0.2340    4.0828 C   0  0  0  0  0  0  0  0  0  0  0  0
   26.3709   -1.3218    5.2716 C   0  0  0  0  0  0  0  0  0  0  0  0
   27.1966   -2.4480    4.6872 C   0  0  0  0  0  0  0  0  0  0  0  0
   28.0354   -1.7623    3.5716 C   0  0  0  0  0  0  0  0  0  0  0  0
   29.3452   -2.2109    3.5616 O   0  0  0  0  0  0  0  0  0  0  0  0
   28.6725   -0.2169    5.4244 C   0  0  0  0  0  0  0  0  0  0  0  0
   29.7366   -2.3023    2.6835 H   0  0  0  0  0  0  0  0  0  0  0  0
  2  1  1  0  0  0
  2  3  1  0  0  0
  3  4  1  0  0  0
  4  5  1  0  0  0
  5  6  2  0  0  0
  5  7  1  0  0  0
  7  8  1  0  0  0
  8  9  1  0  0  0
  9 10  1  0  0  0
 10 11  1  0  0  0
 11 12  1  0  0  0
 12 13  1  0  0  0
 13 14  1  0  0  0
 14 15  1  0  0  0
 15 16  1  0  0  0
 16 17  1  0  0  0
 17 18  1  0  0  0
 18 19  1  0  0  0
 19 20  1  0  0  0
 15 21  1  0  0  0
  8  2  1  0  0  0
 12  2  1  0  0  0
 16 11  1  0  0  0
 19 15  1  0  0  0
 20 22  1  0  0  0
M  END
> <minimizedAffinity>
-9.59779

$$$$



 22 25  0  0  0  0  0  0  0  0999 V2000
   26.9050    1.2169    2.7356 C   0  0  0  0  0  0  0  0  0  0  0  0
   27.2417    1.4325    4.1567 C   0  0  0  0  0  0  0  0  0  0  0  0
   28.7158    1.0825    4.4240 C   0  0  0  0  0  0  0  0  0  0  0  0
   29.0884   -0.3829    4.3585 C   0  0  0  0  0  0  0  0  0  0  0  0
   27.9389   -1.1409    3.8831 C   0  0  0  0  0  0  0  0  0  0  0  0
   28.0553   -1.9772    3.0140 O   0  0  0  0  0  0  0  0  0  0  0  0
   26.6045   -0.9248    4.4419 C   0  0  0  0  0  0  0  0  0  0  0  0
   26.4555    0.5032    5.0752 C   0  0  0  0  0  0  0  0  0  0  0  0
   25.0304    0.7903    4.9865 C   0  0  0  0  0  0  0  0  0  0  0  0
   24.7305    2.2068    5.3464 C   0  0  0  0  0  0  0  0  0  0  0  0
   25.4855    3.1409    4.4167 C   0  0  0  0  0  0  0  0  0  0  0  0
   26.9803    2.8533    4.6047 C   0  0  0  0  0  0  0  0  0  0  0  0
   27.8420    3.8887    3.9557 C   0  0  0  0  0  0  0  0  0  0  0  0
   27.5529    5.2833    4.4562 C   0  0  0  0  0  0  0  0  0  0  0  0
   26.0892    5.5717    4.1477 C   0  0  0  0  0  0  0  0  0  0  0  0
   25.2789    4.5272    4.8237 C   0  0  0  0  0  0  0  0  0  0  0  0
   23.9389    5.0741    4.1033 C   0  0  0  0  0  0  0  0  0  0  0  0
   24.0173    6.5377    4.4822 C   0  0  0  0  0  0  0  0  0  0  0  0
   25.4997    6.7395    4.9065 C   0  0  0  0  0  0  0  0  0  0  0  0
   26.0190    7.9263    4.4181 O   0  0  0  0  0  0  0  0  0  0  0  0
   25.9581    5.7234    2.6739 C   0  0  0  0  0  0  0  0  0  0  0  0
   26.6261    8.3807    5.0162 H   0  0  0  0  0  0  0  0  0  0  0  0
  2  1  1  0  0  0
  2  3  1  0  0  0
  3  4  1  0  0  0
  4  5  1  0  0  0
  5  6  2  0  0  0
  5  7  1  0  0  0
  7  8  1  0  0  0
  8  9  1  0  0  0
  9 10  1  0  0  0
 10 11  1  0  0  0
 11 12  1  0  0  0
 12 13  1  0  0  0
 13 14  1  0  0  0
 14 15  1  0  0  0
 15 16  1  0  0  0
 16 17  1  0  0  0
 17 18  1  0  0  0
 18 19  1  0  0  0
 19 20  1  0  0  0
 15 21  1  0  0  0
  8  2  1  0  0  0
 12  2  1  0  0  0
 16 11  1  0  0  0
 19 15  1  0  0  0
 20 22  1  0  0  0
M  END
> <minimizedAffinity>
-9.38765

$$$$



 22 25  0  0  0  0  0  0  0  0999 V2000
   24.7119    1.8410    3.4836 C   0  0  0  0  0  0  0  0  0  0  0  0
   25.5449    2.1058    4.6733 C   0  0  0  0  0  0  0  0  0  0  0  0
   24.6945    2.0499    5.9543 C   0  0  0  0  0  0  0  0  0  0  0  0
   23.7025    3.1743    6.1601 C   0  0  0  0  0  0  0  0  0  0  0  0
   23.6757    4.0046    4.9636 C   0  0  0  0  0  0  0  0  0  0  0  0
   22.6275    4.3505    4.4638 O   0  0  0  0  0  0  0  0  0  0  0  0
   24.9124    4.4560    4.3261 C   0  0  0  0  0  0  0  0  0  0  0  0
   26.1240    3.5164    4.6601 C   0  0  0  0  0  0  0  0  0  0  0  0
   27.0301    3.6812    3.5318 C   0  0  0  0  0  0  0  0  0  0  0  0
   28.1460    2.6918    3.5724 C   0  0  0  0  0  0  0  0  0  0  0  0
   27.5800    1.2824    3.5548 C   0  0  0  0  0  0  0  0  0  0  0  0
   26.6978    1.1351    4.8008 C   0  0  0  0  0  0  0  0  0  0  0  0
   26.3026   -0.2854    5.0499 C   0  0  0  0  0  0  0  0  0  0  0  0
   27.4922   -1.2042    5.1903 C   0  0  0  0  0  0  0  0  0  0  0  0
   28.2791   -1.1146    3.8889 C   0  0  0  0  0  0  0  0  0  0  0  0
   28.6575    0.3082    3.6961 C   0  0  0  0  0  0  0  0  0  0  0  0
   29.2368   -0.0260    2.2243 C   0  0  0  0  0  0  0  0  0  0  0  0
   30.1712   -1.1675    2.5642 C   0  0  0  0  0  0  0  0  0  0  0  0
   29.6944   -1.6416    3.9665 C   0  0  0  0  0  0  0  0  0  0  0  0
   29.6759   -3.0224    4.0654 O   0  0  0  0  0  0  0  0  0  0  0  0
   27.4782   -1.7822    2.8283 C   0  0  0  0  0  0  0  0  0  0  0  0
   29.9414   -3.3716    4.9258 H   0  0  0  0  0  0  0  0  0  0  0  0
  2  1  1  0  0  0
  2  3  1  0  0  0
  3  4  1  0  0  0
  4  5  1  0  0  0
  5  6  2  0  0  0
  5  7  1  0  0  0
  7  8  1  0  0  0
  8  9  1  0  0  0
  9 10  1  0  0  0
 10 11  1  0  0  0
 11 12  1  0  0  0
 12 13  1  0  0  0
 13 14  1  0  0  0
 14 15  1  0  0  0
 15 16  1  0  0  0
 16 17  1  0  0  0
 17 18  1  0  0  0
 18 19  1  0  0  0
 19 20  1  0  0  0
 15 21  1  0  0  0
  8  2  1  0  0  0
 12  2  1  0  0  0
 16 11  1  0  0  0
 19 15  1  0  0  0
 20 22  1  0  0  0
M  END
> <minimizedAffinity>
-8.63869

$$$$



 22 25  0  0  0  0  0  0  0  0999 V2000
   27.7280    0.4227    5.4848 C   0  0  0  0  0  0  0  0  0  0  0  0
   27.2096    0.3676    4.1036 C   0  0  0  0  0  0  0  0  0  0  0  0
   26.8473   -1.0769    3.7174 C   0  0  0  0  0  0  0  0  0  0  0  0
   28.0005   -2.0387    3.5284 C   0  0  0  0  0  0  0  0  0  0  0  0
   29.2360   -1.3775    3.9259 C   0  0  0  0  0  0  0  0  0  0  0  0
   30.0412   -1.9315    4.6422 O   0  0  0  0  0  0  0  0  0  0  0  0
   29.5525   -0.0241    3.4699 C   0  0  0  0  0  0  0  0  0  0  0  0
   28.2638    0.7833    3.0831 C   0  0  0  0  0  0  0  0  0  0  0  0
   28.6381    2.1769    3.2809 C   0  0  0  0  0  0  0  0  0  0  0  0
   27.4599    3.0850    3.1686 C   0  0  0  0  0  0  0  0  0  0  0  0
   26.4164    2.6982    4.2023 C   0  0  0  0  0  0  0  0  0  0  0  0
   25.9996    1.2527    3.9034 C   0  0  0  0  0  0  0  0  0  0  0  0
   24.7839    0.8437    4.6721 C   0  0  0  0  0  0  0  0  0  0  0  0
   23.6027    1.7484    4.4171 C   0  0  0  0  0  0  0  0  0  0  0  0
   24.0205    3.1530    4.8335 C   0  0  0  0  0  0  0  0  0  0  0  0
   25.2185    3.5149    4.0345 C   0  0  0  0  0  0  0  0  0  0  0  0
   25.4042    4.8720    4.8932 C   0  0  0  0  0  0  0  0  0  0  0  0
   24.0171    5.4619    4.7528 C   0  0  0  0  0  0  0  0  0  0  0  0
   23.1393    4.2606    4.3007 C   0  0  0  0  0  0  0  0  0  0  0  0
   21.9171    4.2412    4.9508 O   0  0  0  0  0  0  0  0  0  0  0  0
   24.1286    3.1726    6.3168 C   0  0  0  0  0  0  0  0  0  0  0  0
   21.1724    3.9531    4.4075 H   0  0  0  0  0  0  0  0  0  0  0  0
  2  1  1  0  0  0
  2  3  1  0  0  0
  3  4  1  0  0  0
  4  5  1  0  0  0
  5  6  2  0  0  0
  5  7  1  0  0  0
  7  8  1  0  0  0
  8  9  1  0  0  0
  9 10  1  0  0  0
 10 11  1  0  0  0
 11 12  1  0  0  0
 12 13  1  0  0  0
 13 14  1  0  0  0
 14 15  1  0  0  0
 15 16  1  0  0  0
 16 17  1  0  0  0
 17 18  1  0  0  0
 18 19  1  0  0  0
 19 20  1  0  0  0
 15 21  1  0  0  0
  8  2  1  0  0  0
 12  2  1  0  0  0
 16 11  1  0  0  0
 19 15  1  0  0  0
 20 22  1  0  0  0
M  END
> <minimizedAffinity>
-8.59642

$$$$



 22 25  0  0  0  0  0  0  0  0999 V2000
   25.6787    4.1172    2.8885 C   0  0  0  0  0  0  0  0  0  0  0  0
   25.6933    4.0999    4.3646 C   0  0  0  0  0  0  0  0  0  0  0  0
   24.3529    4.6048    4.9262 C   0  0  0  0  0  0  0  0  0  0  0  0
   24.0570    6.0791    4.7542 C   0  0  0  0  0  0  0  0  0  0  0  0
   25.0927    6.6739    3.9205 C   0  0  0  0  0  0  0  0  0  0  0  0
   24.8109    7.4093    2.9996 O   0  0  0  0  0  0  0  0  0  0  0  0
   26.5100    6.4104    4.1685 C   0  0  0  0  0  0  0  0  0  0  0  0
   26.7325    5.0593    4.9348 C   0  0  0  0  0  0  0  0  0  0  0  0
   28.0732    4.6417    4.5481 C   0  0  0  0  0  0  0  0  0  0  0  0
   28.3745    3.2567    5.0138 C   0  0  0  0  0  0  0  0  0  0  0  0
   27.3624    2.2886    4.4260 C   0  0  0  0  0  0  0  0  0  0  0  0
   25.9790    2.7243    4.9248 C   0  0  0  0  0  0  0  0  0  0  0  0
   24.9277    1.6982    4.6461 C   0  0  0  0  0  0  0  0  0  0  0  0
   25.2546    0.3523    5.2467 C   0  0  0  0  0  0  0  0  0  0  0  0
   26.5781   -0.0957    4.6396 C   0  0  0  0  0  0  0  0  0  0  0  0
   27.5868    0.9471    4.9553 C   0  0  0  0  0  0  0  0  0  0  0  0
   28.6743    0.2057    4.0165 C   0  0  0  0  0  0  0  0  0  0  0  0
   28.6119   -1.1910    4.5972 C   0  0  0  0  0  0  0  0  0  0  0  0
   27.2721   -1.2128    5.3863 C   0  0  0  0  0  0  0  0  0  0  0  0
   26.5834   -2.3994    5.2008 O   0  0  0  0  0  0  0  0  0  0  0  0
   26.3314   -0.4302    3.2115 C   0  0  0  0  0  0  0  0  0  0  0  0
   26.1194   -2.7263    5.9821 H   0  0  0  0  0  0  0  0  0  0  0  0
  2  1  1  0  0  0
  2  3  1  0  0  0
  3  4  1  0  0  0
  4  5  1  0  0  0
  5  6  2  0  0  0
  5  7  1  0  0  0
  7  8  1  0  0  0
  8  9  1  0  0  0
  9 10  1  0  0  0
 10 11  1  0  0  0
 11 12  1  0  0  0
 12 13  1  0  0  0
 13 14  1  0  0  0
 14 15  1  0  0  0
 15 16  1  0  0  0
 16 17  1  0  0  0
 17 18  1  0  0  0
 18 19  1  0  0  0
 19 20  1  0  0  0
 15 21  1  0  0  0
  8  2  1  0  0  0
 12  2  1  0  0  0
 16 11  1  0  0  0
 19 15  1  0  0  0
 20 22  1  0  0  0
M  END
> <minimizedAffinity>
-7.94578

$$$$



 22 25  0  0  0  0  0  0  0  0999 V2000
   26.4982    5.2239    5.4348 C   0  0  0  0  0  0  0  0  0  0  0  0
   25.9884    4.7486    4.1335 C   0  0  0  0  0  0  0  0  0  0  0  0
   26.3727    5.7271    3.0102 C   0  0  0  0  0  0  0  0  0  0  0  0
   25.6746    7.0700    3.0112 C   0  0  0  0  0  0  0  0  0  0  0  0
   24.8761    7.1854    4.2239 C   0  0  0  0  0  0  0  0  0  0  0  0
   24.9080    8.1888    4.9025 O   0  0  0  0  0  0  0  0  0  0  0  0
   24.0024    6.0975    4.6629 C   0  0  0  0  0  0  0  0  0  0  0  0
   24.4644    4.7076    4.0999 C   0  0  0  0  0  0  0  0  0  0  0  0
   23.9625    3.7415    5.0675 C   0  0  0  0  0  0  0  0  0  0  0  0
   24.4972    2.3731    4.8077 C   0  0  0  0  0  0  0  0  0  0  0  0
   26.0146    2.3974    4.8695 C   0  0  0  0  0  0  0  0  0  0  0  0
   26.4948    3.3673    3.7826 C   0  0  0  0  0  0  0  0  0  0  0  0
   27.9695    3.2748    3.5528 C   0  0  0  0  0  0  0  0  0  0  0  0
   28.4147    1.8801    3.1850 C   0  0  0  0  0  0  0  0  0  0  0  0
   28.0206    0.9685    4.3402 C   0  0  0  0  0  0  0  0  0  0  0  0
   26.5511    1.0866    4.5173 C   0  0  0  0  0  0  0  0  0  0  0  0
   26.6222    0.1890    5.8601 C   0  0  0  0  0  0  0  0  0  0  0  0
   27.3708   -1.0153    5.3301 C   0  0  0  0  0  0  0  0  0  0  0  0
   28.0182   -0.5074    4.0106 C   0  0  0  0  0  0  0  0  0  0  0  0
   29.3195   -0.9580    3.8677 O   0  0  0  0  0  0  0  0  0  0  0  0
   28.8995    1.2946    5.4949 C   0  0  0  0  0  0  0  0  0  0  0  0
   29.5752   -1.1811    2.9635 H   0  0  0  0  0  0  0  0  0  0  0  0
  2  1  1  0  0  0
  2  3  1  0  0  0
  3  4  1  0  0  0
  4  5  1  0  0  0
  5  6  2  0  0  0
  5  7  1  0  0  0
  7  8  1  0  0  0
  8  9  1  0  0  0
  9 10  1  0  0  0
 10 11  1  0  0  0
 11 12  1  0  0  0
 12 13  1  0  0  0
 13 14  1  0  0  0
 14 15  1  0  0  0
 15 16  1  0  0  0
 16 17  1  0  0  0
 17 18  1  0  0  0
 18 19  1  0  0  0
 19 20  1  0  0  0
 15 21  1  0  0  0
  8  2  1  0  0  0
 12  2  1  0  0  0
 16 11  1  0  0  0
 19 15  1  0  0  0
 20 22  1  0  0  0
M  END
> <minimizedAffinity>
-6.66626

$$$$
