


 24 27  0  0  0  0  0  0  0  0999 V2000
   29.1299   -0.7592    3.7029 C   0  0  0  0  0  0  0  0  0  0  0  0
   27.9245   -1.7743    3.7583 C   0  0  0  0  0  0  0  0  0  0  0  0
   26.8178   -0.9362    4.2929 C   0  0  0  0  0  0  0  0  0  0  0  0
   27.2551    0.5265    3.8969 C   0  0  0  0  0  0  0  0  0  0  0  0
   28.6712    0.3796    4.5223 C   0  0  0  0  0  0  0  0  0  0  0  0
   29.2823    1.7108    4.1741 C   0  0  0  0  0  0  0  0  0  0  0  0
   28.5598    2.7762    4.1177 C   0  0  0  0  0  0  0  0  0  0  0  0
   27.1227    2.7720    4.3244 C   0  0  0  0  0  0  0  0  0  0  0  0
   26.2937    3.7770    4.3601 C   0  0  0  0  0  0  0  0  0  0  0  0
   26.8889    5.1674    4.2175 C   0  0  0  0  0  0  0  0  0  0  0  0
   25.8410    6.0486    3.6581 C   0  0  0  0  0  0  0  0  0  0  0  0
   24.5500    6.0545    4.4794 C   0  0  0  0  0  0  0  0  0  0  0  0
   24.0369    6.9701    5.0210 O   0  0  0  0  0  0  0  0  0  0  0  0
   24.0128    4.6486    4.4858 C   0  0  0  0  0  0  0  0  0  0  0  0
   24.8776    3.6807    4.4163 C   0  0  0  0  0  0  0  0  0  0  0  0
   24.2954    2.2132    4.1454 C   0  0  0  0  0  0  0  0  0  0  0  0
   25.1724    1.4601    5.0138 C   0  0  0  0  0  0  0  0  0  0  0  0
   26.5948    1.3750    4.9399 C   0  0  0  0  0  0  0  0  0  0  0  0
   30.0087   -1.5037    4.6421 O   0  0  0  0  0  0  0  0  0  0  0  0
   29.4340   -1.8111    5.4075 H   0  0  0  0  0  0  0  0  0  0  0  0
   29.0906   -1.8912    1.5927 C   0  0  0  0  0  0  0  0  0  0  0  0
   29.8005   -0.8148    2.4554 C   0  0  0  0  0  0  0  0  0  0  0  0
   28.8125    0.3435    5.9832 C   0  0  0  0  0  0  0  0  0  0  0  0
   30.1145    1.1447    6.2968 C   0  0  0  0  0  0  0  0  0  0  0  0
 21 22  1  0  0  0
 22  1  1  0  0  0
  1  2  1  0  0  0
  2  3  1  0  0  0
  3  4  1  0  0  0
  4  5  1  0  0  0
  5  6  1  0  0  0
  6  7  2  0  0  0
  7  8  1  0  0  0
  8  9  2  0  0  0
  9 10  1  0  0  0
 10 11  1  0  0  0
 11 12  1  0  0  0
 12 13  2  0  0  0
 12 14  1  0  0  0
 14 15  2  0  0  0
 15 16  1  0  0  0
 16 17  1  0  0  0
 17 18  1  0  0  0
  5 23  1  0  0  0
 23 24  1  0  0  0
  1 19  1  0  0  0
  5  1  1  0  0  0
 18  4  1  0  0  0
 18  8  1  0  0  0
 15  9  1  0  0  0
 19 20  1  0  0  0
M  END
> <minimizedAffinity>
-11.17583

$$$$



 24 27  0  0  0  0  0  0  0  0999 V2000
   28.1836   -0.5616    4.2696 C   0  0  0  0  0  0  0  0  0  0  0  0
   26.8349   -1.3013    4.6166 C   0  0  0  0  0  0  0  0  0  0  0  0
   25.9455   -0.1813    5.0259 C   0  0  0  0  0  0  0  0  0  0  0  0
   26.5832    1.0643    4.2982 C   0  0  0  0  0  0  0  0  0  0  0  0
   28.0090    0.7835    4.8517 C   0  0  0  0  0  0  0  0  0  0  0  0
   28.7994    1.8797    4.1881 C   0  0  0  0  0  0  0  0  0  0  0  0
   28.2664    3.0281    3.9487 C   0  0  0  0  0  0  0  0  0  0  0  0
   26.8773    3.3342    4.2401 C   0  0  0  0  0  0  0  0  0  0  0  0
   26.2388    4.4629    4.1100 C   0  0  0  0  0  0  0  0  0  0  0  0
   27.0443    5.6602    3.6351 C   0  0  0  0  0  0  0  0  0  0  0  0
   26.1108    6.5914    2.9652 C   0  0  0  0  0  0  0  0  0  0  0  0
   24.9280    7.0031    3.8443 C   0  0  0  0  0  0  0  0  0  0  0  0
   24.6345    8.0881    4.2070 O   0  0  0  0  0  0  0  0  0  0  0  0
   24.1632    5.7528    4.1862 C   0  0  0  0  0  0  0  0  0  0  0  0
   24.8397    4.6462    4.2731 C   0  0  0  0  0  0  0  0  0  0  0  0
   23.9927    3.2896    4.3608 C   0  0  0  0  0  0  0  0  0  0  0  0
   24.8112    2.5753    5.3149 C   0  0  0  0  0  0  0  0  0  0  0  0
   26.1840    2.2127    5.1731 C   0  0  0  0  0  0  0  0  0  0  0  0
   29.0125   -1.2538    5.2908 O   0  0  0  0  0  0  0  0  0  0  0  0
   28.4731   -1.2886    6.1385 H   0  0  0  0  0  0  0  0  0  0  0  0
   27.6548   -0.6529    1.9355 C   0  0  0  0  0  0  0  0  0  0  0  0
   28.7071   -0.9905    3.0242 C   0  0  0  0  0  0  0  0  0  0  0  0
   28.2871    1.0152    6.2746 C   0  0  0  0  0  0  0  0  0  0  0  0
   29.6452    1.7831    6.3151 C   0  0  0  0  0  0  0  0  0  0  0  0
 21 22  1  0  0  0
 22  1  1  0  0  0
  1  2  1  0  0  0
  2  3  1  0  0  0
  3  4  1  0  0  0
  4  5  1  0  0  0
  5  6  1  0  0  0
  6  7  2  0  0  0
  7  8  1  0  0  0
  8  9  2  0  0  0
  9 10  1  0  0  0
 10 11  1  0  0  0
 11 12  1  0  0  0
 12 13  2  0  0  0
 12 14  1  0  0  0
 14 15  2  0  0  0
 15 16  1  0  0  0
 16 17  1  0  0  0
 17 18  1  0  0  0
  5 23  1  0  0  0
 23 24  1  0  0  0
  1 19  1  0  0  0
  5  1  1  0  0  0
 18  4  1  0  0  0
 18  8  1  0  0  0
 15  9  1  0  0  0
 19 20  1  0  0  0
M  END
> <minimizedAffinity>
-8.92992

$$$$
