


 22 22  0  0  0  0  0  0  0  0999 V2000
   27.1117    2.9133    3.5554 C   0  0  0  0  0  0  0  0  0  0  0  0
   27.7305    4.1293    3.4458 C   0  0  0  0  0  0  0  0  0  0  0  0
   27.0374    5.2804    3.6968 C   0  0  0  0  0  0  0  0  0  0  0  0
   25.7034    5.2677    4.0663 C   0  0  0  0  0  0  0  0  0  0  0  0
   25.0640    4.0610    4.1826 C   0  0  0  0  0  0  0  0  0  0  0  0
   25.7855    2.9084    3.9234 C   0  0  0  0  0  0  0  0  0  0  0  0
   28.2329    0.8331    4.3832 C   0  0  0  0  0  0  0  0  0  0  0  0
   28.0996    1.2693    5.5410 O   0  0  0  0  0  0  0  0  0  0  0  0
   27.7324    1.6572    3.3187 N   0  0  0  0  0  0  0  0  0  0  0  0
   27.8568    1.2678    2.3527 H   0  0  0  0  0  0  0  0  0  0  0  0
   29.4028   -0.5799    2.7152 C   0  0  0  0  0  0  0  0  0  0  0  0
   28.8782   -0.4729    4.1307 C   0  0  0  0  0  0  0  0  0  0  0  0
   27.9506   -1.6273    4.4085 C   0  0  0  0  0  0  0  0  0  0  0  0
   29.9643   -0.5944    4.9937 O   0  0  0  0  0  0  0  0  0  0  0  0
   29.6030   -0.7659    5.9168 H   0  0  0  0  0  0  0  0  0  0  0  0
   23.6308    3.9252    4.5858 C   0  0  0  0  0  0  0  0  0  0  0  0
   23.2275    2.6381    4.3418 F   0  0  0  0  0  0  0  0  0  0  0  0
   23.5400    4.0988    5.9794 F   0  0  0  0  0  0  0  0  0  0  0  0
   22.8297    4.8673    3.9845 F   0  0  0  0  0  0  0  0  0  0  0  0
   24.9978    6.4822    4.3105 N   0  0  0  0  0  0  0  0  0  0  0  0
   24.7410    6.9566    5.4228 O   0  0  0  0  0  0  0  0  0  0  0  0
   24.5773    7.1721    3.1948 O   0  0  0  0  0  0  0  0  0  0  0  0
 11 12  1  0  0  0
 12 13  1  0  0  0
 12  7  1  0  0  0
  7  8  2  0  0  0
  7  9  1  0  0  0
  9  1  1  0  0  0
  1  2  2  0  0  0
  2  3  1  0  0  0
  3  4  2  0  0  0
  4  5  1  0  0  0
  5  6  2  0  0  0
  5 16  1  0  0  0
 16 17  1  0  0  0
 16 18  1  0  0  0
 16 19  1  0  0  0
  4 20  1  0  0  0
 20 21  2  0  0  0
 20 22  1  0  0  0
 12 14  1  0  0  0
  6  1  1  0  0  0
  9 10  1  0  0  0
 14 15  1  0  0  0
M  CHG 1  20   1
M  CHG 1  22  -1
M  END
> <minimizedAffinity>
-8.43401

$$$$



 22 22  0  0  0  0  0  0  0  0999 V2000
   27.0455    1.9537    4.7761 C   0  0  0  0  0  0  0  0  0  0  0  0
   25.8078    1.8380    5.3491 C   0  0  0  0  0  0  0  0  0  0  0  0
   24.9427    2.8963    5.3406 C   0  0  0  0  0  0  0  0  0  0  0  0
   25.2738    4.1098    4.7628 C   0  0  0  0  0  0  0  0  0  0  0  0
   26.5080    4.2479    4.1828 C   0  0  0  0  0  0  0  0  0  0  0  0
   27.3677    3.1631    4.2033 C   0  0  0  0  0  0  0  0  0  0  0  0
   28.1531    0.0391    3.6025 C   0  0  0  0  0  0  0  0  0  0  0  0
   27.3645    0.2146    2.6560 O   0  0  0  0  0  0  0  0  0  0  0  0
   28.0221    0.9228    4.7272 N   0  0  0  0  0  0  0  0  0  0  0  0
   28.6978    0.7546    5.5117 H   0  0  0  0  0  0  0  0  0  0  0  0
   29.9177   -1.0476    2.2412 C   0  0  0  0  0  0  0  0  0  0  0  0
   29.1711   -1.0321    3.5576 C   0  0  0  0  0  0  0  0  0  0  0  0
   28.5747   -2.3925    3.8100 C   0  0  0  0  0  0  0  0  0  0  0  0
   30.0998   -0.7908    4.5668 O   0  0  0  0  0  0  0  0  0  0  0  0
   29.6627   -1.0167    5.4442 H   0  0  0  0  0  0  0  0  0  0  0  0
   26.9689    5.5059    3.5195 C   0  0  0  0  0  0  0  0  0  0  0  0
   27.4397    6.3610    4.4819 F   0  0  0  0  0  0  0  0  0  0  0  0
   28.0734    5.2017    2.7021 F   0  0  0  0  0  0  0  0  0  0  0  0
   25.9928    6.0647    2.7286 F   0  0  0  0  0  0  0  0  0  0  0  0
   24.3596    5.2036    4.7776 N   0  0  0  0  0  0  0  0  0  0  0  0
   24.5805    6.3226    5.2544 O   0  0  0  0  0  0  0  0  0  0  0  0
   23.1297    4.9716    4.2022 O   0  0  0  0  0  0  0  0  0  0  0  0
 11 12  1  0  0  0
 12 13  1  0  0  0
 12  7  1  0  0  0
  7  8  2  0  0  0
  7  9  1  0  0  0
  9  1  1  0  0  0
  1  2  2  0  0  0
  2  3  1  0  0  0
  3  4  2  0  0  0
  4  5  1  0  0  0
  5  6  2  0  0  0
  5 16  1  0  0  0
 16 17  1  0  0  0
 16 18  1  0  0  0
 16 19  1  0  0  0
  4 20  1  0  0  0
 20 21  2  0  0  0
 20 22  1  0  0  0
 12 14  1  0  0  0
  6  1  1  0  0  0
  9 10  1  0  0  0
 14 15  1  0  0  0
M  CHG 1  20   1
M  CHG 1  22  -1
M  END
> <minimizedAffinity>
-8.17121

$$$$



 22 22  0  0  0  0  0  0  0  0999 V2000
   26.9892    3.1908    3.9599 C   0  0  0  0  0  0  0  0  0  0  0  0
   26.4849    2.1921    3.1713 C   0  0  0  0  0  0  0  0  0  0  0  0
   26.8662    0.8952    3.3738 C   0  0  0  0  0  0  0  0  0  0  0  0
   27.7628    0.5407    4.3671 C   0  0  0  0  0  0  0  0  0  0  0  0
   28.2801    1.5247    5.1688 C   0  0  0  0  0  0  0  0  0  0  0  0
   27.8799    2.8310    4.9455 C   0  0  0  0  0  0  0  0  0  0  0  0
   25.5451    5.1584    4.5193 C   0  0  0  0  0  0  0  0  0  0  0  0
   24.8589    4.4023    5.2307 O   0  0  0  0  0  0  0  0  0  0  0  0
   26.6644    4.5689    3.8392 N   0  0  0  0  0  0  0  0  0  0  0  0
   27.2267    5.2264    3.2461 H   0  0  0  0  0  0  0  0  0  0  0  0
   24.6672    6.9249    3.0172 C   0  0  0  0  0  0  0  0  0  0  0  0
   25.2119    6.5929    4.3896 C   0  0  0  0  0  0  0  0  0  0  0  0
   26.3939    7.4790    4.6860 C   0  0  0  0  0  0  0  0  0  0  0  0
   24.2216    6.8944    5.3210 O   0  0  0  0  0  0  0  0  0  0  0  0
   24.6516    6.9076    6.2304 H   0  0  0  0  0  0  0  0  0  0  0  0
   29.2453    1.2584    6.2790 C   0  0  0  0  0  0  0  0  0  0  0  0
   30.4047    0.7626    5.7415 F   0  0  0  0  0  0  0  0  0  0  0  0
   29.5917    2.4855    6.8744 F   0  0  0  0  0  0  0  0  0  0  0  0
   28.7088    0.4477    7.2515 F   0  0  0  0  0  0  0  0  0  0  0  0
   28.1555   -0.8174    4.5510 N   0  0  0  0  0  0  0  0  0  0  0  0
   29.1539   -1.3534    4.0569 O   0  0  0  0  0  0  0  0  0  0  0  0
   27.3376   -1.5797    5.3559 O   0  0  0  0  0  0  0  0  0  0  0  0
 11 12  1  0  0  0
 12 13  1  0  0  0
 12  7  1  0  0  0
  7  8  2  0  0  0
  7  9  1  0  0  0
  9  1  1  0  0  0
  1  2  2  0  0  0
  2  3  1  0  0  0
  3  4  2  0  0  0
  4  5  1  0  0  0
  5  6  2  0  0  0
  5 16  1  0  0  0
 16 17  1  0  0  0
 16 18  1  0  0  0
 16 19  1  0  0  0
  4 20  1  0  0  0
 20 21  2  0  0  0
 20 22  1  0  0  0
 12 14  1  0  0  0
  6  1  1  0  0  0
  9 10  1  0  0  0
 14 15  1  0  0  0
M  CHG 1  20   1
M  CHG 1  22  -1
M  END
> <minimizedAffinity>
-7.57743

$$$$



 22 22  0  0  0  0  0  0  0  0999 V2000
   26.2905    2.7151    3.9808 C   0  0  0  0  0  0  0  0  0  0  0  0
   26.1519    1.9544    2.8512 C   0  0  0  0  0  0  0  0  0  0  0  0
   26.8411    0.7812    2.7215 C   0  0  0  0  0  0  0  0  0  0  0  0
   27.6942    0.3185    3.7086 C   0  0  0  0  0  0  0  0  0  0  0  0
   27.8478    1.0641    4.8485 C   0  0  0  0  0  0  0  0  0  0  0  0
   27.1401    2.2487    4.9581 C   0  0  0  0  0  0  0  0  0  0  0  0
   26.1483    5.2058    3.7675 C   0  0  0  0  0  0  0  0  0  0  0  0
   27.2247    5.1743    3.1439 O   0  0  0  0  0  0  0  0  0  0  0  0
   25.6256    3.9475    4.2217 N   0  0  0  0  0  0  0  0  0  0  0  0
   24.7179    4.0006    4.7445 H   0  0  0  0  0  0  0  0  0  0  0  0
   26.2932    7.4316    4.8504 C   0  0  0  0  0  0  0  0  0  0  0  0
   25.4520    6.4851    4.0215 C   0  0  0  0  0  0  0  0  0  0  0  0
   24.1190    6.2818    4.6938 C   0  0  0  0  0  0  0  0  0  0  0  0
   25.2106    7.0988    2.7951 O   0  0  0  0  0  0  0  0  0  0  0  0
   24.4670    6.5945    2.3425 H   0  0  0  0  0  0  0  0  0  0  0  0
   28.7315    0.6580    5.9840 C   0  0  0  0  0  0  0  0  0  0  0  0
   30.0364    0.7310    5.5709 F   0  0  0  0  0  0  0  0  0  0  0  0
   28.6007    1.6078    7.0141 F   0  0  0  0  0  0  0  0  0  0  0  0
   28.3921   -0.5737    6.4924 F   0  0  0  0  0  0  0  0  0  0  0  0
   28.4125   -0.9021    3.5453 N   0  0  0  0  0  0  0  0  0  0  0  0
   29.5512   -1.0124    3.0770 O   0  0  0  0  0  0  0  0  0  0  0  0
   27.7625   -2.0456    3.9546 O   0  0  0  0  0  0  0  0  0  0  0  0
 11 12  1  0  0  0
 12 13  1  0  0  0
 12  7  1  0  0  0
  7  8  2  0  0  0
  7  9  1  0  0  0
  9  1  1  0  0  0
  1  2  2  0  0  0
  2  3  1  0  0  0
  3  4  2  0  0  0
  4  5  1  0  0  0
  5  6  2  0  0  0
  5 16  1  0  0  0
 16 17  1  0  0  0
 16 18  1  0  0  0
 16 19  1  0  0  0
  4 20  1  0  0  0
 20 21  2  0  0  0
 20 22  1  0  0  0
 12 14  1  0  0  0
  6  1  1  0  0  0
  9 10  1  0  0  0
 14 15  1  0  0  0
M  CHG 1  20   1
M  CHG 1  22  -1
M  END
> <minimizedAffinity>
-7.40102

$$$$



 22 22  0  0  0  0  0  0  0  0999 V2000
   26.7318    2.7652    4.1926 C   0  0  0  0  0  0  0  0  0  0  0  0
   28.0373    2.9029    3.8049 C   0  0  0  0  0  0  0  0  0  0  0  0
   28.8722    1.8206    3.7988 C   0  0  0  0  0  0  0  0  0  0  0  0
   28.4424    0.5604    4.1773 C   0  0  0  0  0  0  0  0  0  0  0  0
   27.1387    0.3995    4.5688 C   0  0  0  0  0  0  0  0  0  0  0  0
   26.3114    1.5093    4.5673 C   0  0  0  0  0  0  0  0  0  0  0  0
   26.1607    5.2016    4.2801 C   0  0  0  0  0  0  0  0  0  0  0  0
   27.3806    5.4472    4.2755 O   0  0  0  0  0  0  0  0  0  0  0  0
   25.7784    3.8178    4.2379 N   0  0  0  0  0  0  0  0  0  0  0  0
   24.7451    3.6369    4.2429 H   0  0  0  0  0  0  0  0  0  0  0  0
   23.7596    5.7666    4.5314 C   0  0  0  0  0  0  0  0  0  0  0  0
   25.1640    6.2925    4.3275 C   0  0  0  0  0  0  0  0  0  0  0  0
   25.2018    7.1497    3.0890 C   0  0  0  0  0  0  0  0  0  0  0  0
   25.4691    7.1124    5.4109 O   0  0  0  0  0  0  0  0  0  0  0  0
   26.2860    7.6471    5.1685 H   0  0  0  0  0  0  0  0  0  0  0  0
   26.5617   -0.9150    4.9863 C   0  0  0  0  0  0  0  0  0  0  0  0
   27.2275   -1.3505    6.1025 F   0  0  0  0  0  0  0  0  0  0  0  0
   25.2289   -0.7105    5.3892 F   0  0  0  0  0  0  0  0  0  0  0  0
   26.5628   -1.8325    3.9622 F   0  0  0  0  0  0  0  0  0  0  0  0
   29.3352   -0.5511    4.1750 N   0  0  0  0  0  0  0  0  0  0  0  0
   29.5175   -1.3285    3.2313 O   0  0  0  0  0  0  0  0  0  0  0  0
   30.0487   -0.7560    5.3354 O   0  0  0  0  0  0  0  0  0  0  0  0
 11 12  1  0  0  0
 12 13  1  0  0  0
 12  7  1  0  0  0
  7  8  2  0  0  0
  7  9  1  0  0  0
  9  1  1  0  0  0
  1  2  2  0  0  0
  2  3  1  0  0  0
  3  4  2  0  0  0
  4  5  1  0  0  0
  5  6  2  0  0  0
  5 16  1  0  0  0
 16 17  1  0  0  0
 16 18  1  0  0  0
 16 19  1  0  0  0
  4 20  1  0  0  0
 20 21  2  0  0  0
 20 22  1  0  0  0
 12 14  1  0  0  0
  6  1  1  0  0  0
  9 10  1  0  0  0
 14 15  1  0  0  0
M  CHG 1  20   1
M  CHG 1  22  -1
M  END
> <minimizedAffinity>
-6.76637

$$$$



 22 22  0  0  0  0  0  0  0  0999 V2000
   26.1520    1.2447    4.6377 C   0  0  0  0  0  0  0  0  0  0  0  0
   26.0570    0.2143    3.7415 C   0  0  0  0  0  0  0  0  0  0  0  0
   27.1577   -0.5359    3.4347 C   0  0  0  0  0  0  0  0  0  0  0  0
   28.3946   -0.2914    4.0061 C   0  0  0  0  0  0  0  0  0  0  0  0
   28.5125    0.7353    4.9065 C   0  0  0  0  0  0  0  0  0  0  0  0
   27.3848    1.4817    5.2020 C   0  0  0  0  0  0  0  0  0  0  0  0
   24.8975    3.4067    4.4913 C   0  0  0  0  0  0  0  0  0  0  0  0
   25.7343    3.7899    3.6537 O   0  0  0  0  0  0  0  0  0  0  0  0
   25.0771    2.0873    5.0296 N   0  0  0  0  0  0  0  0  0  0  0  0
   24.3593    1.7878    5.7333 H   0  0  0  0  0  0  0  0  0  0  0  0
   22.4884    3.9149    4.1984 C   0  0  0  0  0  0  0  0  0  0  0  0
   23.7773    4.2791    4.9033 C   0  0  0  0  0  0  0  0  0  0  0  0
   24.0787    5.7371    4.6718 C   0  0  0  0  0  0  0  0  0  0  0  0
   23.5738    4.1078    6.2701 O   0  0  0  0  0  0  0  0  0  0  0  0
   24.3269    4.5700    6.7511 H   0  0  0  0  0  0  0  0  0  0  0  0
   29.7936    1.0830    5.5941 C   0  0  0  0  0  0  0  0  0  0  0  0
   30.5883    1.7732    4.7160 F   0  0  0  0  0  0  0  0  0  0  0  0
   29.5100    1.9790    6.6416 F   0  0  0  0  0  0  0  0  0  0  0  0
   30.4119   -0.0213    6.1316 F   0  0  0  0  0  0  0  0  0  0  0  0
   29.5314   -1.0793    3.6607 N   0  0  0  0  0  0  0  0  0  0  0  0
   29.9382   -2.0695    4.2790 O   0  0  0  0  0  0  0  0  0  0  0  0
   30.2199   -0.6863    2.5341 O   0  0  0  0  0  0  0  0  0  0  0  0
 11 12  1  0  0  0
 12 13  1  0  0  0
 12  7  1  0  0  0
  7  8  2  0  0  0
  7  9  1  0  0  0
  9  1  1  0  0  0
  1  2  2  0  0  0
  2  3  1  0  0  0
  3  4  2  0  0  0
  4  5  1  0  0  0
  5  6  2  0  0  0
  5 16  1  0  0  0
 16 17  1  0  0  0
 16 18  1  0  0  0
 16 19  1  0  0  0
  4 20  1  0  0  0
 20 21  2  0  0  0
 20 22  1  0  0  0
 12 14  1  0  0  0
  6  1  1  0  0  0
  9 10  1  0  0  0
 14 15  1  0  0  0
M  CHG 1  20   1
M  CHG 1  22  -1
M  END
> <minimizedAffinity>
-6.14478

$$$$



 22 22  0  0  0  0  0  0  0  0999 V2000
   26.5470    2.5343    5.2258 C   0  0  0  0  0  0  0  0  0  0  0  0
   25.2529    2.5885    5.6685 C   0  0  0  0  0  0  0  0  0  0  0  0
   24.4858    3.6926    5.4218 C   0  0  0  0  0  0  0  0  0  0  0  0
   24.9746    4.7850    4.7261 C   0  0  0  0  0  0  0  0  0  0  0  0
   26.2679    4.7521    4.2732 C   0  0  0  0  0  0  0  0  0  0  0  0
   27.0262    3.6239    4.5347 C   0  0  0  0  0  0  0  0  0  0  0  0
   28.7056    1.5898    6.0732 C   0  0  0  0  0  0  0  0  0  0  0  0
   29.0080    2.7330    6.4608 O   0  0  0  0  0  0  0  0  0  0  0  0
   27.4327    1.4411    5.4248 N   0  0  0  0  0  0  0  0  0  0  0  0
   27.2012    0.4686    5.1074 H   0  0  0  0  0  0  0  0  0  0  0  0
   29.3763   -0.6607    5.2777 C   0  0  0  0  0  0  0  0  0  0  0  0
   29.6232    0.4486    6.2771 C   0  0  0  0  0  0  0  0  0  0  0  0
   29.5342   -0.1084    7.6742 C   0  0  0  0  0  0  0  0  0  0  0  0
   30.9269    0.9014    6.0916 O   0  0  0  0  0  0  0  0  0  0  0  0
   31.1744    1.4560    6.8935 H   0  0  0  0  0  0  0  0  0  0  0  0
   26.8977    5.8671    3.5018 C   0  0  0  0  0  0  0  0  0  0  0  0
   25.9306    6.4775    2.7462 F   0  0  0  0  0  0  0  0  0  0  0  0
   27.3470    6.8422    4.4116 F   0  0  0  0  0  0  0  0  0  0  0  0
   27.9764    5.4433    2.7619 F   0  0  0  0  0  0  0  0  0  0  0  0
   24.1595    5.9310    4.4921 N   0  0  0  0  0  0  0  0  0  0  0  0
   23.2530    6.0133    3.6556 O   0  0  0  0  0  0  0  0  0  0  0  0
   24.4207    7.0300    5.2805 O   0  0  0  0  0  0  0  0  0  0  0  0
 11 12  1  0  0  0
 12 13  1  0  0  0
 12  7  1  0  0  0
  7  8  2  0  0  0
  7  9  1  0  0  0
  9  1  1  0  0  0
  1  2  2  0  0  0
  2  3  1  0  0  0
  3  4  2  0  0  0
  4  5  1  0  0  0
  5  6  2  0  0  0
  5 16  1  0  0  0
 16 17  1  0  0  0
 16 18  1  0  0  0
 16 19  1  0  0  0
  4 20  1  0  0  0
 20 21  2  0  0  0
 20 22  1  0  0  0
 12 14  1  0  0  0
  6  1  1  0  0  0
  9 10  1  0  0  0
 14 15  1  0  0  0
M  CHG 1  20   1
M  CHG 1  22  -1
M  END
> <minimizedAffinity>
-5.78260

$$$$



 22 22  0  0  0  0  0  0  0  0999 V2000
   27.4622    3.6749    4.0105 C   0  0  0  0  0  0  0  0  0  0  0  0
   28.4705    3.5338    4.9254 C   0  0  0  0  0  0  0  0  0  0  0  0
   28.9381    2.2909    5.2495 C   0  0  0  0  0  0  0  0  0  0  0  0
   28.4222    1.1408    4.6774 C   0  0  0  0  0  0  0  0  0  0  0  0
   27.4122    1.2587    3.7583 C   0  0  0  0  0  0  0  0  0  0  0  0
   26.9543    2.5271    3.4456 C   0  0  0  0  0  0  0  0  0  0  0  0
   25.7950    5.5227    4.2857 C   0  0  0  0  0  0  0  0  0  0  0  0
   25.3410    4.9130    5.2709 O   0  0  0  0  0  0  0  0  0  0  0  0
   26.9001    4.9135    3.5997 N   0  0  0  0  0  0  0  0  0  0  0  0
   27.2645    5.4465    2.7730 H   0  0  0  0  0  0  0  0  0  0  0  0
   25.6670    7.9585    4.7308 C   0  0  0  0  0  0  0  0  0  0  0  0
   25.2141    6.8116    3.8533 C   0  0  0  0  0  0  0  0  0  0  0  0
   23.7082    6.7725    3.8196 C   0  0  0  0  0  0  0  0  0  0  0  0
   25.6529    7.0726    2.5577 O   0  0  0  0  0  0  0  0  0  0  0  0
   25.1586    6.4537    1.9376 H   0  0  0  0  0  0  0  0  0  0  0  0
   26.7875    0.0888    3.0682 C   0  0  0  0  0  0  0  0  0  0  0  0
   25.7298    0.5358    2.3196 F   0  0  0  0  0  0  0  0  0  0  0  0
   27.7149   -0.4352    2.1486 F   0  0  0  0  0  0  0  0  0  0  0  0
   26.4450   -0.9116    3.9472 F   0  0  0  0  0  0  0  0  0  0  0  0
   28.9174   -0.1457    5.0408 N   0  0  0  0  0  0  0  0  0  0  0  0
   29.5963   -0.8874    4.3216 O   0  0  0  0  0  0  0  0  0  0  0  0
   28.6021   -0.5786    6.3100 O   0  0  0  0  0  0  0  0  0  0  0  0
 11 12  1  0  0  0
 12 13  1  0  0  0
 12  7  1  0  0  0
  7  8  2  0  0  0
  7  9  1  0  0  0
  9  1  1  0  0  0
  1  2  2  0  0  0
  2  3  1  0  0  0
  3  4  2  0  0  0
  4  5  1  0  0  0
  5  6  2  0  0  0
  5 16  1  0  0  0
 16 17  1  0  0  0
 16 18  1  0  0  0
 16 19  1  0  0  0
  4 20  1  0  0  0
 20 21  2  0  0  0
 20 22  1  0  0  0
 12 14  1  0  0  0
  6  1  1  0  0  0
  9 10  1  0  0  0
 14 15  1  0  0  0
M  CHG 1  20   1
M  CHG 1  22  -1
M  END
> <minimizedAffinity>
-5.68604

$$$$



 22 22  0  0  0  0  0  0  0  0999 V2000
   28.0185    1.8824    4.0893 C   0  0  0  0  0  0  0  0  0  0  0  0
   28.3049    3.2019    4.3142 C   0  0  0  0  0  0  0  0  0  0  0  0
   27.2960    4.1004    4.5217 C   0  0  0  0  0  0  0  0  0  0  0  0
   25.9642    3.7229    4.5137 C   0  0  0  0  0  0  0  0  0  0  0  0
   25.6545    2.4064    4.2908 C   0  0  0  0  0  0  0  0  0  0  0  0
   26.6923    1.5142    4.0830 C   0  0  0  0  0  0  0  0  0  0  0  0
   28.6209   -0.5117    3.6706 C   0  0  0  0  0  0  0  0  0  0  0  0
   27.4072   -0.7832    3.7123 O   0  0  0  0  0  0  0  0  0  0  0  0
   28.9838    0.8647    3.8619 N   0  0  0  0  0  0  0  0  0  0  0  0
   30.0121    1.0678    3.8224 H   0  0  0  0  0  0  0  0  0  0  0  0
   30.2925   -1.4222    2.0817 C   0  0  0  0  0  0  0  0  0  0  0  0
   29.6300   -1.5662    3.4348 C   0  0  0  0  0  0  0  0  0  0  0  0
   29.0453   -2.9492    3.5603 C   0  0  0  0  0  0  0  0  0  0  0  0
   30.6210   -1.4434    4.4053 O   0  0  0  0  0  0  0  0  0  0  0  0
   30.2389   -1.7738    5.2752 H   0  0  0  0  0  0  0  0  0  0  0  0
   24.2543    1.8829    4.2717 C   0  0  0  0  0  0  0  0  0  0  0  0
   23.4568    2.7894    3.6229 F   0  0  0  0  0  0  0  0  0  0  0  0
   24.2244    0.7145    3.4878 F   0  0  0  0  0  0  0  0  0  0  0  0
   23.8006    1.5650    5.5302 F   0  0  0  0  0  0  0  0  0  0  0  0
   24.9285    4.6806    4.7198 N   0  0  0  0  0  0  0  0  0  0  0  0
   24.6531    5.6198    3.9646 O   0  0  0  0  0  0  0  0  0  0  0  0
   24.1799    4.5245    5.8657 O   0  0  0  0  0  0  0  0  0  0  0  0
 11 12  1  0  0  0
 12 13  1  0  0  0
 12  7  1  0  0  0
  7  8  2  0  0  0
  7  9  1  0  0  0
  9  1  1  0  0  0
  1  2  2  0  0  0
  2  3  1  0  0  0
  3  4  2  0  0  0
  4  5  1  0  0  0
  5  6  2  0  0  0
  5 16  1  0  0  0
 16 17  1  0  0  0
 16 18  1  0  0  0
 16 19  1  0  0  0
  4 20  1  0  0  0
 20 21  2  0  0  0
 20 22  1  0  0  0
 12 14  1  0  0  0
  6  1  1  0  0  0
  9 10  1  0  0  0
 14 15  1  0  0  0
M  CHG 1  20   1
M  CHG 1  22  -1
M  END
> <minimizedAffinity>
-5.62133

$$$$



 22 22  0  0  0  0  0  0  0  0999 V2000
   26.3469    1.0443    4.0763 C   0  0  0  0  0  0  0  0  0  0  0  0
   24.9935    0.9013    4.2231 C   0  0  0  0  0  0  0  0  0  0  0  0
   24.1903    2.0033    4.3173 C   0  0  0  0  0  0  0  0  0  0  0  0
   24.7004    3.2892    4.2694 C   0  0  0  0  0  0  0  0  0  0  0  0
   26.0530    3.4558    4.1223 C   0  0  0  0  0  0  0  0  0  0  0  0
   26.8470    2.3257    4.0291 C   0  0  0  0  0  0  0  0  0  0  0  0
   28.5148    0.0970    3.2564 C   0  0  0  0  0  0  0  0  0  0  0  0
   28.7505    1.1984    2.7273 O   0  0  0  0  0  0  0  0  0  0  0  0
   27.2740   -0.0271    3.9690 N   0  0  0  0  0  0  0  0  0  0  0  0
   27.0987   -0.9645    4.4056 H   0  0  0  0  0  0  0  0  0  0  0  0
   30.3895   -0.8677    1.9515 C   0  0  0  0  0  0  0  0  0  0  0  0
   29.4755   -1.0215    3.1479 C   0  0  0  0  0  0  0  0  0  0  0  0
   28.7842   -2.3586    3.0802 C   0  0  0  0  0  0  0  0  0  0  0  0
   30.2719   -1.0219    4.2902 O   0  0  0  0  0  0  0  0  0  0  0  0
   29.7110   -1.3610    5.0533 H   0  0  0  0  0  0  0  0  0  0  0  0
   26.7132    4.7950    4.0462 C   0  0  0  0  0  0  0  0  0  0  0  0
   26.3069    5.5449    5.1193 F   0  0  0  0  0  0  0  0  0  0  0  0
   28.1006    4.6191    4.2035 F   0  0  0  0  0  0  0  0  0  0  0  0
   26.4950    5.4147    2.8383 F   0  0  0  0  0  0  0  0  0  0  0  0
   23.8442    4.4234    4.3827 N   0  0  0  0  0  0  0  0  0  0  0  0
   24.0016    5.5069    3.8086 O   0  0  0  0  0  0  0  0  0  0  0  0
   22.7504    4.2754    5.2070 O   0  0  0  0  0  0  0  0  0  0  0  0
 11 12  1  0  0  0
 12 13  1  0  0  0
 12  7  1  0  0  0
  7  8  2  0  0  0
  7  9  1  0  0  0
  9  1  1  0  0  0
  1  2  2  0  0  0
  2  3  1  0  0  0
  3  4  2  0  0  0
  4  5  1  0  0  0
  5  6  2  0  0  0
  5 16  1  0  0  0
 16 17  1  0  0  0
 16 18  1  0  0  0
 16 19  1  0  0  0
  4 20  1  0  0  0
 20 21  2  0  0  0
 20 22  1  0  0  0
 12 14  1  0  0  0
  6  1  1  0  0  0
  9 10  1  0  0  0
 14 15  1  0  0  0
M  CHG 1  20   1
M  CHG 1  22  -1
M  END
> <minimizedAffinity>
-5.59120

$$$$
