


 22 22  0  0  0  0  0  0  0  0999 V2000
   27.0019    2.8871    3.6060 C   0  0  0  0  0  0  0  0  0  0  0  0
   27.6421    4.0946    3.4329 C   0  0  0  0  0  0  0  0  0  0  0  0
   27.0144    5.2798    3.6431 C   0  0  0  0  0  0  0  0  0  0  0  0
   25.6750    5.2879    4.0485 C   0  0  0  0  0  0  0  0  0  0  0  0
   25.0432    4.0876    4.2186 C   0  0  0  0  0  0  0  0  0  0  0  0
   25.6888    2.8860    4.0030 C   0  0  0  0  0  0  0  0  0  0  0  0
   28.1828    0.8546    4.4642 C   0  0  0  0  0  0  0  0  0  0  0  0
   27.9808    1.2815    5.6256 O   0  0  0  0  0  0  0  0  0  0  0  0
   27.6998    1.6413    3.3745 N   0  0  0  0  0  0  0  0  0  0  0  0
   27.8743    1.2750    2.4145 H   0  0  0  0  0  0  0  0  0  0  0  0
   29.3874   -0.3698    2.7795 C   0  0  0  0  0  0  0  0  0  0  0  0
   28.9045   -0.4326    4.2342 C   0  0  0  0  0  0  0  0  0  0  0  0
   27.9704   -1.6207    4.3413 C   0  0  0  0  0  0  0  0  0  0  0  0
   30.0012   -0.5214    5.0579 O   0  0  0  0  0  0  0  0  0  0  0  0
   29.7854   -1.0897    5.8357 H   0  0  0  0  0  0  0  0  0  0  0  0
   23.6160    4.0299    4.6333 C   0  0  0  0  0  0  0  0  0  0  0  0
   22.8751    5.1067    4.2760 F   0  0  0  0  0  0  0  0  0  0  0  0
   23.5595    3.9654    6.0358 F   0  0  0  0  0  0  0  0  0  0  0  0
   23.0056    2.8996    4.1822 F   0  0  0  0  0  0  0  0  0  0  0  0
   25.1132    6.5588    4.2607 N   0  0  0  0  0  0  0  0  0  0  0  0
   25.0521    7.0499    5.3836 O   0  0  0  0  0  0  0  0  0  0  0  0
   24.6185    7.2619    3.1951 O   0  0  0  0  0  0  0  0  0  0  0  0
 11 12  1  0  0  0
 12 13  1  0  0  0
 12  7  1  0  0  0
  7  8  2  0  0  0
  7  9  1  0  0  0
  9  1  1  0  0  0
  1  2  2  0  0  0
  2  3  1  0  0  0
  3  4  2  0  0  0
  4  5  1  0  0  0
  5  6  2  0  0  0
  5 16  1  0  0  0
 16 17  1  0  0  0
 16 18  1  0  0  0
 16 19  1  0  0  0
  4 20  1  0  0  0
 20 21  2  0  0  0
 20 22  1  0  0  0
 12 14  1  0  0  0
  6  1  1  0  0  0
  9 10  1  0  0  0
 14 15  1  0  0  0
M  CHG 1  20   1
M  CHG 1  22  -1
M  END
> <minimizedAffinity>
-8.56478

$$$$



 22 22  0  0  0  0  0  0  0  0999 V2000
   26.9651    2.1268    4.8396 C   0  0  0  0  0  0  0  0  0  0  0  0
   25.7012    2.0428    5.3810 C   0  0  0  0  0  0  0  0  0  0  0  0
   24.8293    3.0824    5.3406 C   0  0  0  0  0  0  0  0  0  0  0  0
   25.2152    4.2823    4.7325 C   0  0  0  0  0  0  0  0  0  0  0  0
   26.4705    4.3618    4.1971 C   0  0  0  0  0  0  0  0  0  0  0  0
   27.3517    3.2994    4.2420 C   0  0  0  0  0  0  0  0  0  0  0  0
   28.0853    0.1679    3.7578 C   0  0  0  0  0  0  0  0  0  0  0  0
   27.4630    0.4488    2.7062 O   0  0  0  0  0  0  0  0  0  0  0  0
   27.8703    0.9999    4.8986 N   0  0  0  0  0  0  0  0  0  0  0  0
   28.3937    0.7554    5.7660 H   0  0  0  0  0  0  0  0  0  0  0  0
   29.6644   -1.0592    2.4203 C   0  0  0  0  0  0  0  0  0  0  0  0
   29.0178   -0.9976    3.8100 C   0  0  0  0  0  0  0  0  0  0  0  0
   28.2695   -2.2998    4.0100 C   0  0  0  0  0  0  0  0  0  0  0  0
   30.0028   -0.7822    4.7440 O   0  0  0  0  0  0  0  0  0  0  0  0
   29.7801   -1.2636    5.5764 H   0  0  0  0  0  0  0  0  0  0  0  0
   26.9453    5.6145    3.5510 C   0  0  0  0  0  0  0  0  0  0  0  0
   26.0259    6.2395    2.7763 F   0  0  0  0  0  0  0  0  0  0  0  0
   28.0215    5.3013    2.7036 F   0  0  0  0  0  0  0  0  0  0  0  0
   27.4334    6.4986    4.4640 F   0  0  0  0  0  0  0  0  0  0  0  0
   24.2420    5.2964    4.7202 N   0  0  0  0  0  0  0  0  0  0  0  0
   23.1361    5.1133    4.2208 O   0  0  0  0  0  0  0  0  0  0  0  0
   24.5339    6.5155    5.2707 O   0  0  0  0  0  0  0  0  0  0  0  0
 11 12  1  0  0  0
 12 13  1  0  0  0
 12  7  1  0  0  0
  7  8  2  0  0  0
  7  9  1  0  0  0
  9  1  1  0  0  0
  1  2  2  0  0  0
  2  3  1  0  0  0
  3  4  2  0  0  0
  4  5  1  0  0  0
  5  6  2  0  0  0
  5 16  1  0  0  0
 16 17  1  0  0  0
 16 18  1  0  0  0
 16 19  1  0  0  0
  4 20  1  0  0  0
 20 21  2  0  0  0
 20 22  1  0  0  0
 12 14  1  0  0  0
  6  1  1  0  0  0
  9 10  1  0  0  0
 14 15  1  0  0  0
M  CHG 1  20   1
M  CHG 1  22  -1
M  END
> <minimizedAffinity>
-8.45639

$$$$



 22 22  0  0  0  0  0  0  0  0999 V2000
   26.7253    1.6055    3.6038 C   0  0  0  0  0  0  0  0  0  0  0  0
   25.4978    1.4180    4.2004 C   0  0  0  0  0  0  0  0  0  0  0  0
   24.6951    2.4586    4.5401 C   0  0  0  0  0  0  0  0  0  0  0  0
   25.1171    3.7676    4.2811 C   0  0  0  0  0  0  0  0  0  0  0  0
   26.3360    3.9494    3.6897 C   0  0  0  0  0  0  0  0  0  0  0  0
   27.1468    2.8853    3.3468 C   0  0  0  0  0  0  0  0  0  0  0  0
   28.4690   -0.0888    4.1968 C   0  0  0  0  0  0  0  0  0  0  0  0
   28.5232    0.4307    5.3366 O   0  0  0  0  0  0  0  0  0  0  0  0
   27.5567    0.4747    3.2534 N   0  0  0  0  0  0  0  0  0  0  0  0
   27.5215    0.0334    2.3098 H   0  0  0  0  0  0  0  0  0  0  0  0
   29.7699   -1.0090    2.3942 C   0  0  0  0  0  0  0  0  0  0  0  0
   29.3311   -1.2560    3.8432 C   0  0  0  0  0  0  0  0  0  0  0  0
   28.5453   -2.5514    3.8549 C   0  0  0  0  0  0  0  0  0  0  0  0
   30.4491   -1.2857    4.6421 O   0  0  0  0  0  0  0  0  0  0  0  0
   30.3193   -1.9416    5.3683 H   0  0  0  0  0  0  0  0  0  0  0  0
   26.8472    5.3163    3.4026 C   0  0  0  0  0  0  0  0  0  0  0  0
   25.9495    6.1502    2.8241 F   0  0  0  0  0  0  0  0  0  0  0  0
   27.9206    5.2129    2.5016 F   0  0  0  0  0  0  0  0  0  0  0  0
   27.3520    5.9102    4.5189 F   0  0  0  0  0  0  0  0  0  0  0  0
   24.2137    4.7799    4.6486 N   0  0  0  0  0  0  0  0  0  0  0  0
   24.5720    5.7410    5.3222 O   0  0  0  0  0  0  0  0  0  0  0  0
   22.9060    4.6904    4.2529 O   0  0  0  0  0  0  0  0  0  0  0  0
 11 12  1  0  0  0
 12 13  1  0  0  0
 12  7  1  0  0  0
  7  8  2  0  0  0
  7  9  1  0  0  0
  9  1  1  0  0  0
  1  2  2  0  0  0
  2  3  1  0  0  0
  3  4  2  0  0  0
  4  5  1  0  0  0
  5  6  2  0  0  0
  5 16  1  0  0  0
 16 17  1  0  0  0
 16 18  1  0  0  0
 16 19  1  0  0  0
  4 20  1  0  0  0
 20 21  2  0  0  0
 20 22  1  0  0  0
 12 14  1  0  0  0
  6  1  1  0  0  0
  9 10  1  0  0  0
 14 15  1  0  0  0
M  CHG 1  20   1
M  CHG 1  22  -1
M  END
> <minimizedAffinity>
-8.03164

$$$$



 22 22  0  0  0  0  0  0  0  0999 V2000
   26.6576    1.2550    3.1258 C   0  0  0  0  0  0  0  0  0  0  0  0
   25.4553    0.7703    3.5920 C   0  0  0  0  0  0  0  0  0  0  0  0
   24.5287    1.5764    4.1702 C   0  0  0  0  0  0  0  0  0  0  0  0
   24.7919    2.9445    4.3025 C   0  0  0  0  0  0  0  0  0  0  0  0
   25.9863    3.4214    3.8392 C   0  0  0  0  0  0  0  0  0  0  0  0
   26.9238    2.5948    3.2518 C   0  0  0  0  0  0  0  0  0  0  0  0
   28.7241   -0.1498    3.2615 C   0  0  0  0  0  0  0  0  0  0  0  0
   28.8224    0.1890    4.4646 O   0  0  0  0  0  0  0  0  0  0  0  0
   27.6237    0.3692    2.5136 N   0  0  0  0  0  0  0  0  0  0  0  0
   27.5537    0.0796    1.5149 H   0  0  0  0  0  0  0  0  0  0  0  0
   28.9583   -1.8174    1.5432 C   0  0  0  0  0  0  0  0  0  0  0  0
   29.7261   -1.0647    2.6373 C   0  0  0  0  0  0  0  0  0  0  0  0
   30.2235   -2.1011    3.6243 C   0  0  0  0  0  0  0  0  0  0  0  0
   30.7347   -0.3406    2.0477 O   0  0  0  0  0  0  0  0  0  0  0  0
   31.5204   -0.3212    2.6449 H   0  0  0  0  0  0  0  0  0  0  0  0
   26.3314    4.8628    3.9645 C   0  0  0  0  0  0  0  0  0  0  0  0
   27.6558    5.1397    3.8917 F   0  0  0  0  0  0  0  0  0  0  0  0
   25.9064    5.3171    5.2245 F   0  0  0  0  0  0  0  0  0  0  0  0
   25.6667    5.6213    3.0499 F   0  0  0  0  0  0  0  0  0  0  0  0
   23.7685    3.7044    4.8950 N   0  0  0  0  0  0  0  0  0  0  0  0
   23.5628    3.6646    6.1042 O   0  0  0  0  0  0  0  0  0  0  0  0
   22.9806    4.5010    4.1081 O   0  0  0  0  0  0  0  0  0  0  0  0
 11 12  1  0  0  0
 12 13  1  0  0  0
 12  7  1  0  0  0
  7  8  2  0  0  0
  7  9  1  0  0  0
  9  1  1  0  0  0
  1  2  2  0  0  0
  2  3  1  0  0  0
  3  4  2  0  0  0
  4  5  1  0  0  0
  5  6  2  0  0  0
  5 16  1  0  0  0
 16 17  1  0  0  0
 16 18  1  0  0  0
 16 19  1  0  0  0
  4 20  1  0  0  0
 20 21  2  0  0  0
 20 22  1  0  0  0
 12 14  1  0  0  0
  6  1  1  0  0  0
  9 10  1  0  0  0
 14 15  1  0  0  0
M  CHG 1  20   1
M  CHG 1  22  -1
M  END
> <minimizedAffinity>
-7.81868

$$$$



 22 22  0  0  0  0  0  0  0  0999 V2000
   26.8765    2.9804    3.8596 C   0  0  0  0  0  0  0  0  0  0  0  0
   26.2072    2.1550    2.9829 C   0  0  0  0  0  0  0  0  0  0  0  0
   26.3807    0.8087    2.9856 C   0  0  0  0  0  0  0  0  0  0  0  0
   27.2645    0.2295    3.9032 C   0  0  0  0  0  0  0  0  0  0  0  0
   27.9271    1.0521    4.7710 C   0  0  0  0  0  0  0  0  0  0  0  0
   27.7449    2.4211    4.7621 C   0  0  0  0  0  0  0  0  0  0  0  0
   25.5668    5.0092    4.5162 C   0  0  0  0  0  0  0  0  0  0  0  0
   24.7885    4.2505    5.1411 O   0  0  0  0  0  0  0  0  0  0  0  0
   26.6685    4.4117    3.8313 N   0  0  0  0  0  0  0  0  0  0  0  0
   27.3076    5.0536    3.3159 H   0  0  0  0  0  0  0  0  0  0  0  0
   24.8371    6.7942    3.0775 C   0  0  0  0  0  0  0  0  0  0  0  0
   25.3445    6.4859    4.4920 C   0  0  0  0  0  0  0  0  0  0  0  0
   26.6421    7.2466    4.6743 C   0  0  0  0  0  0  0  0  0  0  0  0
   24.3704    6.8391    5.3950 O   0  0  0  0  0  0  0  0  0  0  0  0
   24.7920    7.1848    6.2179 H   0  0  0  0  0  0  0  0  0  0  0  0
   28.8910    0.4990    5.7595 C   0  0  0  0  0  0  0  0  0  0  0  0
   28.3390   -0.2890    6.7136 F   0  0  0  0  0  0  0  0  0  0  0  0
   29.4980    1.5683    6.4397 F   0  0  0  0  0  0  0  0  0  0  0  0
   29.9025   -0.1797    5.1515 F   0  0  0  0  0  0  0  0  0  0  0  0
   27.3659   -1.1713    3.8463 N   0  0  0  0  0  0  0  0  0  0  0  0
   28.1494   -1.7236    3.0800 O   0  0  0  0  0  0  0  0  0  0  0  0
   26.5713   -1.9367    4.6570 O   0  0  0  0  0  0  0  0  0  0  0  0
 11 12  1  0  0  0
 12 13  1  0  0  0
 12  7  1  0  0  0
  7  8  2  0  0  0
  7  9  1  0  0  0
  9  1  1  0  0  0
  1  2  2  0  0  0
  2  3  1  0  0  0
  3  4  2  0  0  0
  4  5  1  0  0  0
  5  6  2  0  0  0
  5 16  1  0  0  0
 16 17  1  0  0  0
 16 18  1  0  0  0
 16 19  1  0  0  0
  4 20  1  0  0  0
 20 21  2  0  0  0
 20 22  1  0  0  0
 12 14  1  0  0  0
  6  1  1  0  0  0
  9 10  1  0  0  0
 14 15  1  0  0  0
M  CHG 1  20   1
M  CHG 1  22  -1
M  END
> <minimizedAffinity>
-7.69645

$$$$



 22 22  0  0  0  0  0  0  0  0999 V2000
   26.4077    2.5456    4.0325 C   0  0  0  0  0  0  0  0  0  0  0  0
   26.3541    1.7521    2.9076 C   0  0  0  0  0  0  0  0  0  0  0  0
   27.0562    0.5946    2.8081 C   0  0  0  0  0  0  0  0  0  0  0  0
   27.8632    0.1841    3.8752 C   0  0  0  0  0  0  0  0  0  0  0  0
   27.9141    0.9746    4.9893 C   0  0  0  0  0  0  0  0  0  0  0  0
   27.1965    2.1509    5.0830 C   0  0  0  0  0  0  0  0  0  0  0  0
   26.2682    5.0399    3.8863 C   0  0  0  0  0  0  0  0  0  0  0  0
   27.4947    5.0492    3.6260 O   0  0  0  0  0  0  0  0  0  0  0  0
   25.6463    3.7734    4.1072 N   0  0  0  0  0  0  0  0  0  0  0  0
   24.6266    3.7798    4.3225 H   0  0  0  0  0  0  0  0  0  0  0  0
   26.3541    7.2649    4.7975 C   0  0  0  0  0  0  0  0  0  0  0  0
   25.4898    6.3123    3.9617 C   0  0  0  0  0  0  0  0  0  0  0  0
   24.1861    6.1230    4.7101 C   0  0  0  0  0  0  0  0  0  0  0  0
   25.3287    6.8510    2.7075 O   0  0  0  0  0  0  0  0  0  0  0  0
   24.4284    6.6323    2.3668 H   0  0  0  0  0  0  0  0  0  0  0  0
   28.7649    0.6008    6.1505 C   0  0  0  0  0  0  0  0  0  0  0  0
   30.0820    0.4543    5.8677 F   0  0  0  0  0  0  0  0  0  0  0  0
   28.3308   -0.6420    6.6420 F   0  0  0  0  0  0  0  0  0  0  0  0
   28.6256    1.4796    7.1809 F   0  0  0  0  0  0  0  0  0  0  0  0
   28.5376   -1.0354    3.6914 N   0  0  0  0  0  0  0  0  0  0  0  0
   29.6116   -1.0877    3.0999 O   0  0  0  0  0  0  0  0  0  0  0  0
   27.9838   -2.1899    4.1762 O   0  0  0  0  0  0  0  0  0  0  0  0
 11 12  1  0  0  0
 12 13  1  0  0  0
 12  7  1  0  0  0
  7  8  2  0  0  0
  7  9  1  0  0  0
  9  1  1  0  0  0
  1  2  2  0  0  0
  2  3  1  0  0  0
  3  4  2  0  0  0
  4  5  1  0  0  0
  5  6  2  0  0  0
  5 16  1  0  0  0
 16 17  1  0  0  0
 16 18  1  0  0  0
 16 19  1  0  0  0
  4 20  1  0  0  0
 20 21  2  0  0  0
 20 22  1  0  0  0
 12 14  1  0  0  0
  6  1  1  0  0  0
  9 10  1  0  0  0
 14 15  1  0  0  0
M  CHG 1  20   1
M  CHG 1  22  -1
M  END
> <minimizedAffinity>
-7.27525

$$$$



 22 22  0  0  0  0  0  0  0  0999 V2000
   27.5063    3.6518    4.3529 C   0  0  0  0  0  0  0  0  0  0  0  0
   28.5357    3.3589    5.2202 C   0  0  0  0  0  0  0  0  0  0  0  0
   29.0065    2.0957    5.3796 C   0  0  0  0  0  0  0  0  0  0  0  0
   28.4361    1.0499    4.6453 C   0  0  0  0  0  0  0  0  0  0  0  0
   27.4144    1.3445    3.7862 C   0  0  0  0  0  0  0  0  0  0  0  0
   26.9412    2.6325    3.6294 C   0  0  0  0  0  0  0  0  0  0  0  0
   25.7101    5.3741    4.6168 C   0  0  0  0  0  0  0  0  0  0  0  0
   24.9843    4.4781    5.1089 O   0  0  0  0  0  0  0  0  0  0  0  0
   27.0282    5.0091    4.2055 N   0  0  0  0  0  0  0  0  0  0  0  0
   27.6211    5.7634    3.7983 H   0  0  0  0  0  0  0  0  0  0  0  0
   24.8154    6.9055    2.9912 C   0  0  0  0  0  0  0  0  0  0  0  0
   25.2085    6.7730    4.4680 C   0  0  0  0  0  0  0  0  0  0  0  0
   26.3034    7.7871    4.7291 C   0  0  0  0  0  0  0  0  0  0  0  0
   24.0877    6.9652    5.2401 O   0  0  0  0  0  0  0  0  0  0  0  0
   24.3373    7.4272    6.0759 H   0  0  0  0  0  0  0  0  0  0  0  0
   26.7566    0.2748    2.9892 C   0  0  0  0  0  0  0  0  0  0  0  0
   26.3892   -0.8196    3.6986 F   0  0  0  0  0  0  0  0  0  0  0  0
   27.6617   -0.1779    2.0143 F   0  0  0  0  0  0  0  0  0  0  0  0
   25.6771    0.7465    2.3068 F   0  0  0  0  0  0  0  0  0  0  0  0
   28.9995   -0.2199    4.8602 N   0  0  0  0  0  0  0  0  0  0  0  0
   28.7866   -0.8456    5.8942 O   0  0  0  0  0  0  0  0  0  0  0  0
   29.8070   -0.7686    3.9004 O   0  0  0  0  0  0  0  0  0  0  0  0
 11 12  1  0  0  0
 12 13  1  0  0  0
 12  7  1  0  0  0
  7  8  2  0  0  0
  7  9  1  0  0  0
  9  1  1  0  0  0
  1  2  2  0  0  0
  2  3  1  0  0  0
  3  4  2  0  0  0
  4  5  1  0  0  0
  5  6  2  0  0  0
  5 16  1  0  0  0
 16 17  1  0  0  0
 16 18  1  0  0  0
 16 19  1  0  0  0
  4 20  1  0  0  0
 20 21  2  0  0  0
 20 22  1  0  0  0
 12 14  1  0  0  0
  6  1  1  0  0  0
  9 10  1  0  0  0
 14 15  1  0  0  0
M  CHG 1  20   1
M  CHG 1  22  -1
M  END
> <minimizedAffinity>
-7.10614

$$$$



 22 22  0  0  0  0  0  0  0  0999 V2000
   26.8317    3.0864    4.6736 C   0  0  0  0  0  0  0  0  0  0  0  0
   28.1813    3.1636    4.4083 C   0  0  0  0  0  0  0  0  0  0  0  0
   28.9534    2.0555    4.2713 C   0  0  0  0  0  0  0  0  0  0  0  0
   28.3713    0.7895    4.4015 C   0  0  0  0  0  0  0  0  0  0  0  0
   27.0319    0.7173    4.6653 C   0  0  0  0  0  0  0  0  0  0  0  0
   26.2531    1.8495    4.8031 C   0  0  0  0  0  0  0  0  0  0  0  0
   26.1078    5.3337    3.8441 C   0  0  0  0  0  0  0  0  0  0  0  0
   26.8822    5.1751    2.8709 O   0  0  0  0  0  0  0  0  0  0  0  0
   26.0366    4.2869    4.8130 N   0  0  0  0  0  0  0  0  0  0  0  0
   25.3891    4.4314    5.6168 H   0  0  0  0  0  0  0  0  0  0  0  0
   26.0525    7.4519    4.9836 C   0  0  0  0  0  0  0  0  0  0  0  0
   25.2907    6.5764    3.9804 C   0  0  0  0  0  0  0  0  0  0  0  0
   23.9328    6.2854    4.5861 C   0  0  0  0  0  0  0  0  0  0  0  0
   25.2241    7.2408    2.7790 O   0  0  0  0  0  0  0  0  0  0  0  0
   24.3633    7.0424    2.3387 H   0  0  0  0  0  0  0  0  0  0  0  0
   26.3576   -0.5982    4.8300 C   0  0  0  0  0  0  0  0  0  0  0  0
   26.3456   -1.3748    3.7197 F   0  0  0  0  0  0  0  0  0  0  0  0
   25.0113   -0.3727    5.1631 F   0  0  0  0  0  0  0  0  0  0  0  0
   26.8849   -1.3085    5.8648 F   0  0  0  0  0  0  0  0  0  0  0  0
   29.2422   -0.2995    4.2249 N   0  0  0  0  0  0  0  0  0  0  0  0
   29.4185   -0.8027    3.1196 O   0  0  0  0  0  0  0  0  0  0  0  0
   29.9034   -0.8144    5.3076 O   0  0  0  0  0  0  0  0  0  0  0  0
 11 12  1  0  0  0
 12 13  1  0  0  0
 12  7  1  0  0  0
  7  8  2  0  0  0
  7  9  1  0  0  0
  9  1  1  0  0  0
  1  2  2  0  0  0
  2  3  1  0  0  0
  3  4  2  0  0  0
  4  5  1  0  0  0
  5  6  2  0  0  0
  5 16  1  0  0  0
 16 17  1  0  0  0
 16 18  1  0  0  0
 16 19  1  0  0  0
  4 20  1  0  0  0
 20 21  2  0  0  0
 20 22  1  0  0  0
 12 14  1  0  0  0
  6  1  1  0  0  0
  9 10  1  0  0  0
 14 15  1  0  0  0
M  CHG 1  20   1
M  CHG 1  22  -1
M  END
> <minimizedAffinity>
-6.97246

$$$$



 22 22  0  0  0  0  0  0  0  0999 V2000
   26.2694    1.5344    4.6258 C   0  0  0  0  0  0  0  0  0  0  0  0
   26.1973    0.6227    3.5956 C   0  0  0  0  0  0  0  0  0  0  0  0
   27.2601   -0.1396    3.2321 C   0  0  0  0  0  0  0  0  0  0  0  0
   28.4723   -0.0040    3.9182 C   0  0  0  0  0  0  0  0  0  0  0  0
   28.5398    0.9023    4.9395 C   0  0  0  0  0  0  0  0  0  0  0  0
   27.4539    1.6740    5.3034 C   0  0  0  0  0  0  0  0  0  0  0  0
   24.9573    3.6612    4.4941 C   0  0  0  0  0  0  0  0  0  0  0  0
   25.8481    4.1122    3.7358 O   0  0  0  0  0  0  0  0  0  0  0  0
   25.1178    2.3311    4.9889 N   0  0  0  0  0  0  0  0  0  0  0  0
   24.3702    1.9685    5.6180 H   0  0  0  0  0  0  0  0  0  0  0  0
   22.6193    3.9519    4.0069 C   0  0  0  0  0  0  0  0  0  0  0  0
   23.7717    4.4908    4.8641 C   0  0  0  0  0  0  0  0  0  0  0  0
   23.9684    5.9436    4.4816 C   0  0  0  0  0  0  0  0  0  0  0  0
   23.4552    4.3108    6.1894 O   0  0  0  0  0  0  0  0  0  0  0  0
   23.8123    5.0629    6.7197 H   0  0  0  0  0  0  0  0  0  0  0  0
   29.8039    1.1038    5.6969 C   0  0  0  0  0  0  0  0  0  0  0  0
   30.3930   -0.0350    6.1351 F   0  0  0  0  0  0  0  0  0  0  0  0
   29.5219    1.8639    6.8446 F   0  0  0  0  0  0  0  0  0  0  0  0
   30.7093    1.8274    4.9825 F   0  0  0  0  0  0  0  0  0  0  0  0
   29.5111   -0.8467    3.4865 N   0  0  0  0  0  0  0  0  0  0  0  0
   30.1963   -0.5650    2.5081 O   0  0  0  0  0  0  0  0  0  0  0  0
   29.7613   -2.0084    4.1664 O   0  0  0  0  0  0  0  0  0  0  0  0
 11 12  1  0  0  0
 12 13  1  0  0  0
 12  7  1  0  0  0
  7  8  2  0  0  0
  7  9  1  0  0  0
  9  1  1  0  0  0
  1  2  2  0  0  0
  2  3  1  0  0  0
  3  4  2  0  0  0
  4  5  1  0  0  0
  5  6  2  0  0  0
  5 16  1  0  0  0
 16 17  1  0  0  0
 16 18  1  0  0  0
 16 19  1  0  0  0
  4 20  1  0  0  0
 20 21  2  0  0  0
 20 22  1  0  0  0
 12 14  1  0  0  0
  6  1  1  0  0  0
  9 10  1  0  0  0
 14 15  1  0  0  0
M  CHG 1  20   1
M  CHG 1  22  -1
M  END
> <minimizedAffinity>
-6.14068

$$$$



 22 22  0  0  0  0  0  0  0  0999 V2000
   27.3547    1.2989    3.9914 C   0  0  0  0  0  0  0  0  0  0  0  0
   27.6284    0.6685    5.1854 C   0  0  0  0  0  0  0  0  0  0  0  0
   28.3441   -0.4834    5.2447 C   0  0  0  0  0  0  0  0  0  0  0  0
   28.8243   -1.0580    4.0625 C   0  0  0  0  0  0  0  0  0  0  0  0
   28.5500   -0.4298    2.8798 C   0  0  0  0  0  0  0  0  0  0  0  0
   27.8213    0.7422    2.8278 C   0  0  0  0  0  0  0  0  0  0  0  0
   27.1925    3.7776    4.2946 C   0  0  0  0  0  0  0  0  0  0  0  0
   28.4057    3.7740    4.6111 O   0  0  0  0  0  0  0  0  0  0  0  0
   26.5895    2.5262    3.9626 N   0  0  0  0  0  0  0  0  0  0  0  0
   25.5808    2.5434    3.7013 H   0  0  0  0  0  0  0  0  0  0  0  0
   26.0832    5.2906    2.7885 C   0  0  0  0  0  0  0  0  0  0  0  0
   26.4100    5.0494    4.2677 C   0  0  0  0  0  0  0  0  0  0  0  0
   27.2431    6.2250    4.7361 C   0  0  0  0  0  0  0  0  0  0  0  0
   25.2317    4.9021    4.9599 O   0  0  0  0  0  0  0  0  0  0  0  0
   25.3270    5.2919    5.8617 H   0  0  0  0  0  0  0  0  0  0  0  0
   29.0194   -0.9986    1.5881 C   0  0  0  0  0  0  0  0  0  0  0  0
   29.0386   -2.3525    1.5356 F   0  0  0  0  0  0  0  0  0  0  0  0
   30.3431   -0.5809    1.3695 F   0  0  0  0  0  0  0  0  0  0  0  0
   28.2984   -0.5221    0.5361 F   0  0  0  0  0  0  0  0  0  0  0  0
   29.5710   -2.2383    4.2216 N   0  0  0  0  0  0  0  0  0  0  0  0
   29.0257   -3.3367    4.2685 O   0  0  0  0  0  0  0  0  0  0  0  0
   30.9335   -2.1625    4.3324 O   0  0  0  0  0  0  0  0  0  0  0  0
 11 12  1  0  0  0
 12 13  1  0  0  0
 12  7  1  0  0  0
  7  8  2  0  0  0
  7  9  1  0  0  0
  9  1  1  0  0  0
  1  2  2  0  0  0
  2  3  1  0  0  0
  3  4  2  0  0  0
  4  5  1  0  0  0
  5  6  2  0  0  0
  5 16  1  0  0  0
 16 17  1  0  0  0
 16 18  1  0  0  0
 16 19  1  0  0  0
  4 20  1  0  0  0
 20 21  2  0  0  0
 20 22  1  0  0  0
 12 14  1  0  0  0
  6  1  1  0  0  0
  9 10  1  0  0  0
 14 15  1  0  0  0
M  CHG 1  20   1
M  CHG 1  22  -1
M  END
> <minimizedAffinity>
-6.09054

$$$$
