


 23 23  0  0  0  0  0  0  0  0999 V2000
   27.0756    2.9628    3.5253 C   0  0  0  0  0  0  0  0  0  0  0  0
   27.7521    4.1399    3.3650 C   0  0  0  0  0  0  0  0  0  0  0  0
   27.0640    5.3260    3.6283 C   0  0  0  0  0  0  0  0  0  0  0  0
   25.7328    5.3032    4.0401 C   0  0  0  0  0  0  0  0  0  0  0  0
   25.0554    4.1188    4.1998 C   0  0  0  0  0  0  0  0  0  0  0  0
   25.7348    2.9531    3.9403 C   0  0  0  0  0  0  0  0  0  0  0  0
   28.4307    0.9636    4.2042 C   0  0  0  0  0  0  0  0  0  0  0  0
   28.6669    1.3602    5.3453 O   0  0  0  0  0  0  0  0  0  0  0  0
   27.6696    1.6968    3.2883 N   0  0  0  0  0  0  0  0  0  0  0  0
   27.5377    1.2437    2.3336 H   0  0  0  0  0  0  0  0  0  0  0  0
   29.7388   -0.1910    2.4908 C   0  0  0  0  0  0  0  0  0  0  0  0
   28.9882   -0.3624    3.7914 C   0  0  0  0  0  0  0  0  0  0  0  0
   29.8458   -0.8498    4.7474 O   0  0  0  0  0  0  0  0  0  0  0  0
   29.4428   -1.5357    5.3422 H   0  0  0  0  0  0  0  0  0  0  0  0
   27.8587   -1.3432    3.5765 C   0  0  0  0  0  0  0  0  0  0  0  0
   26.9098   -1.5332    5.2309 Br  0  0  0  0  0  0  0  0  0  0  0  0
   23.6320    4.1037    4.6234 C   0  0  0  0  0  0  0  0  0  0  0  0
   23.6253    4.1163    6.0254 F   0  0  0  0  0  0  0  0  0  0  0  0
   22.8946    5.1511    4.1792 F   0  0  0  0  0  0  0  0  0  0  0  0
   23.0663    2.8537    4.3161 F   0  0  0  0  0  0  0  0  0  0  0  0
   25.0607    6.5184    4.3187 N   0  0  0  0  0  0  0  0  0  0  0  0
   24.8471    7.0357    5.4003 O   0  0  0  0  0  0  0  0  0  0  0  0
   24.5771    7.2138    3.2061 O   0  0  0  0  0  0  0  0  0  0  0  0
 11 12  1  0  0  0
 12 15  1  0  0  0
 15 16  1  0  0  0
 12  7  1  0  0  0
  7  8  2  0  0  0
  7  9  1  0  0  0
  9  1  1  0  0  0
  1  2  2  0  0  0
  2  3  1  0  0  0
  3  4  2  0  0  0
  4  5  1  0  0  0
  5  6  2  0  0  0
  5 17  1  0  0  0
 17 18  1  0  0  0
 17 19  1  0  0  0
 17 20  1  0  0  0
  4 21  1  0  0  0
 21 22  2  0  0  0
 21 23  1  0  0  0
 12 13  1  0  0  0
  6  1  1  0  0  0
  9 10  1  0  0  0
 13 14  1  0  0  0
M  CHG 1  21   1
M  CHG 1  23  -1
M  END
> <minimizedAffinity>
-8.39165

$$$$



 23 23  0  0  0  0  0  0  0  0999 V2000
   26.9464    2.0718    4.7119 C   0  0  0  0  0  0  0  0  0  0  0  0
   25.7496    1.9505    5.3614 C   0  0  0  0  0  0  0  0  0  0  0  0
   24.9096    3.0654    5.3895 C   0  0  0  0  0  0  0  0  0  0  0  0
   25.2848    4.2583    4.7744 C   0  0  0  0  0  0  0  0  0  0  0  0
   26.4884    4.3774    4.1230 C   0  0  0  0  0  0  0  0  0  0  0  0
   27.3131    3.2788    4.0965 C   0  0  0  0  0  0  0  0  0  0  0  0
   28.0363    0.1486    3.5254 C   0  0  0  0  0  0  0  0  0  0  0  0
   27.3537    0.2346    2.5047 O   0  0  0  0  0  0  0  0  0  0  0  0
   27.8805    1.0086    4.6172 N   0  0  0  0  0  0  0  0  0  0  0  0
   28.5328    0.8297    5.4398 H   0  0  0  0  0  0  0  0  0  0  0  0
   29.9214   -0.8598    2.3381 C   0  0  0  0  0  0  0  0  0  0  0  0
   29.0746   -0.9272    3.5882 C   0  0  0  0  0  0  0  0  0  0  0  0
   29.8800   -0.7639    4.6890 O   0  0  0  0  0  0  0  0  0  0  0  0
   29.6463   -1.3530    5.4537 H   0  0  0  0  0  0  0  0  0  0  0  0
   28.4018   -2.2790    3.6488 C   0  0  0  0  0  0  0  0  0  0  0  0
   26.9300   -2.1595    4.8707 Br  0  0  0  0  0  0  0  0  0  0  0  0
   26.8880    5.6571    3.4838 C   0  0  0  0  0  0  0  0  0  0  0  0
   27.9820    5.3727    2.6544 F   0  0  0  0  0  0  0  0  0  0  0  0
   25.9222    6.2465    2.7369 F   0  0  0  0  0  0  0  0  0  0  0  0
   27.4411    6.5113    4.4541 F   0  0  0  0  0  0  0  0  0  0  0  0
   24.4084    5.3706    4.8006 N   0  0  0  0  0  0  0  0  0  0  0  0
   24.5962    6.4724    5.2842 O   0  0  0  0  0  0  0  0  0  0  0  0
   23.1636    5.1773    4.1934 O   0  0  0  0  0  0  0  0  0  0  0  0
 11 12  1  0  0  0
 12 15  1  0  0  0
 15 16  1  0  0  0
 12  7  1  0  0  0
  7  8  2  0  0  0
  7  9  1  0  0  0
  9  1  1  0  0  0
  1  2  2  0  0  0
  2  3  1  0  0  0
  3  4  2  0  0  0
  4  5  1  0  0  0
  5  6  2  0  0  0
  5 17  1  0  0  0
 17 18  1  0  0  0
 17 19  1  0  0  0
 17 20  1  0  0  0
  4 21  1  0  0  0
 21 22  2  0  0  0
 21 23  1  0  0  0
 12 13  1  0  0  0
  6  1  1  0  0  0
  9 10  1  0  0  0
 13 14  1  0  0  0
M  CHG 1  21   1
M  CHG 1  23  -1
M  END
> <minimizedAffinity>
-8.26919

$$$$



 23 23  0  0  0  0  0  0  0  0999 V2000
   27.0828    3.0511    4.3436 C   0  0  0  0  0  0  0  0  0  0  0  0
   27.8753    4.0900    3.9417 C   0  0  0  0  0  0  0  0  0  0  0  0
   27.2839    5.3489    3.8192 C   0  0  0  0  0  0  0  0  0  0  0  0
   25.9310    5.5329    4.0986 C   0  0  0  0  0  0  0  0  0  0  0  0
   25.1370    4.4868    4.5017 C   0  0  0  0  0  0  0  0  0  0  0  0
   25.7214    3.2491    4.6218 C   0  0  0  0  0  0  0  0  0  0  0  0
   27.4335    0.6866    3.5820 C   0  0  0  0  0  0  0  0  0  0  0  0
   26.8541    0.8201    2.5041 O   0  0  0  0  0  0  0  0  0  0  0  0
   27.5715    1.7292    4.5037 N   0  0  0  0  0  0  0  0  0  0  0  0
   28.0941    1.4850    5.3989 H   0  0  0  0  0  0  0  0  0  0  0  0
   29.3287   -0.4572    4.6213 C   0  0  0  0  0  0  0  0  0  0  0  0
   28.0108   -0.6550    3.9082 C   0  0  0  0  0  0  0  0  0  0  0  0
   27.1609   -1.3676    4.7187 O   0  0  0  0  0  0  0  0  0  0  0  0
   26.6165   -2.0459    4.2391 H   0  0  0  0  0  0  0  0  0  0  0  0
   28.2582   -1.4252    2.6318 C   0  0  0  0  0  0  0  0  0  0  0  0
   29.9667   -0.9010    1.9394 Br  0  0  0  0  0  0  0  0  0  0  0  0
   23.6925    4.6879    4.7820 C   0  0  0  0  0  0  0  0  0  0  0  0
   23.3601    3.8281    5.8384 F   0  0  0  0  0  0  0  0  0  0  0  0
   23.3509    5.9525    5.1314 F   0  0  0  0  0  0  0  0  0  0  0  0
   22.9339    4.1813    3.7120 F   0  0  0  0  0  0  0  0  0  0  0  0
   25.3571    6.8226    3.9846 N   0  0  0  0  0  0  0  0  0  0  0  0
   24.7368    7.2963    3.0498 O   0  0  0  0  0  0  0  0  0  0  0  0
   25.5271    7.6628    5.0894 O   0  0  0  0  0  0  0  0  0  0  0  0
 11 12  1  0  0  0
 12 15  1  0  0  0
 15 16  1  0  0  0
 12  7  1  0  0  0
  7  8  2  0  0  0
  7  9  1  0  0  0
  9  1  1  0  0  0
  1  2  2  0  0  0
  2  3  1  0  0  0
  3  4  2  0  0  0
  4  5  1  0  0  0
  5  6  2  0  0  0
  5 17  1  0  0  0
 17 18  1  0  0  0
 17 19  1  0  0  0
 17 20  1  0  0  0
  4 21  1  0  0  0
 21 22  2  0  0  0
 21 23  1  0  0  0
 12 13  1  0  0  0
  6  1  1  0  0  0
  9 10  1  0  0  0
 13 14  1  0  0  0
M  CHG 1  21   1
M  CHG 1  23  -1
M  END
> <minimizedAffinity>
-7.66720

$$$$



 23 23  0  0  0  0  0  0  0  0999 V2000
   27.4414    2.7105    3.7710 C   0  0  0  0  0  0  0  0  0  0  0  0
   27.6372    3.9922    3.3373 C   0  0  0  0  0  0  0  0  0  0  0  0
   26.6302    4.9253    3.5919 C   0  0  0  0  0  0  0  0  0  0  0  0
   25.4676    4.5558    4.2657 C   0  0  0  0  0  0  0  0  0  0  0  0
   25.2735    3.2670    4.6999 C   0  0  0  0  0  0  0  0  0  0  0  0
   26.2660    2.3507    4.4483 C   0  0  0  0  0  0  0  0  0  0  0  0
   28.2143    0.5413    2.7754 C   0  0  0  0  0  0  0  0  0  0  0  0
   27.1774    0.3196    2.1502 O   0  0  0  0  0  0  0  0  0  0  0  0
   28.3929    1.6778    3.5706 N   0  0  0  0  0  0  0  0  0  0  0  0
   29.3358    1.7529    4.0597 H   0  0  0  0  0  0  0  0  0  0  0  0
   28.9422   -1.5060    1.6535 C   0  0  0  0  0  0  0  0  0  0  0  0
   29.3247   -0.4566    2.6718 C   0  0  0  0  0  0  0  0  0  0  0  0
   30.4916    0.1515    2.2776 O   0  0  0  0  0  0  0  0  0  0  0  0
   31.1235    0.3373    3.0211 H   0  0  0  0  0  0  0  0  0  0  0  0
   29.5302   -1.1281    4.0099 C   0  0  0  0  0  0  0  0  0  0  0  0
   27.9131   -2.0476    4.4714 Br  0  0  0  0  0  0  0  0  0  0  0  0
   24.0247    2.8775    5.4030 C   0  0  0  0  0  0  0  0  0  0  0  0
   22.9643    3.1429    4.5250 F   0  0  0  0  0  0  0  0  0  0  0  0
   23.9623    1.5748    5.7734 F   0  0  0  0  0  0  0  0  0  0  0  0
   23.7875    3.7702    6.4632 F   0  0  0  0  0  0  0  0  0  0  0  0
   24.4678    5.5239    4.5285 N   0  0  0  0  0  0  0  0  0  0  0  0
   23.3030    5.5263    4.1728 O   0  0  0  0  0  0  0  0  0  0  0  0
   24.8717    6.6216    5.2948 O   0  0  0  0  0  0  0  0  0  0  0  0
 11 12  1  0  0  0
 12 15  1  0  0  0
 15 16  1  0  0  0
 12  7  1  0  0  0
  7  8  2  0  0  0
  7  9  1  0  0  0
  9  1  1  0  0  0
  1  2  2  0  0  0
  2  3  1  0  0  0
  3  4  2  0  0  0
  4  5  1  0  0  0
  5  6  2  0  0  0
  5 17  1  0  0  0
 17 18  1  0  0  0
 17 19  1  0  0  0
 17 20  1  0  0  0
  4 21  1  0  0  0
 21 22  2  0  0  0
 21 23  1  0  0  0
 12 13  1  0  0  0
  6  1  1  0  0  0
  9 10  1  0  0  0
 13 14  1  0  0  0
M  CHG 1  21   1
M  CHG 1  23  -1
M  END
> <minimizedAffinity>
-7.04903

$$$$



 23 23  0  0  0  0  0  0  0  0999 V2000
   25.9649    2.4743    5.0043 C   0  0  0  0  0  0  0  0  0  0  0  0
   24.7334    2.7595    5.5250 C   0  0  0  0  0  0  0  0  0  0  0  0
   24.2471    4.0590    5.3694 C   0  0  0  0  0  0  0  0  0  0  0  0
   24.9970    5.0276    4.7048 C   0  0  0  0  0  0  0  0  0  0  0  0
   26.2345    4.7382    4.1831 C   0  0  0  0  0  0  0  0  0  0  0  0
   26.7106    3.4586    4.3373 C   0  0  0  0  0  0  0  0  0  0  0  0
   26.6015    0.2275    4.0872 C   0  0  0  0  0  0  0  0  0  0  0  0
   26.1058    0.4068    2.9749 O   0  0  0  0  0  0  0  0  0  0  0  0
   26.5612    1.1909    5.1002 N   0  0  0  0  0  0  0  0  0  0  0  0
   27.0266    0.9134    6.0170 H   0  0  0  0  0  0  0  0  0  0  0  0
   26.6330   -1.7196    5.5663 C   0  0  0  0  0  0  0  0  0  0  0  0
   27.2735   -1.0826    4.3546 C   0  0  0  0  0  0  0  0  0  0  0  0
   27.1429   -1.9262    3.2784 O   0  0  0  0  0  0  0  0  0  0  0  0
   27.9464   -1.9682    2.6960 H   0  0  0  0  0  0  0  0  0  0  0  0
   28.7389   -0.8519    4.6427 C   0  0  0  0  0  0  0  0  0  0  0  0
   29.5027    0.0747    3.1489 Br  0  0  0  0  0  0  0  0  0  0  0  0
   27.0344    5.7803    3.4903 C   0  0  0  0  0  0  0  0  0  0  0  0
   27.4939    6.6631    4.4779 F   0  0  0  0  0  0  0  0  0  0  0  0
   28.1027    5.3123    2.7992 F   0  0  0  0  0  0  0  0  0  0  0  0
   26.1810    6.5875    2.7176 F   0  0  0  0  0  0  0  0  0  0  0  0
   24.4754    6.3344    4.5434 N   0  0  0  0  0  0  0  0  0  0  0  0
   23.7236    6.7491    3.6798 O   0  0  0  0  0  0  0  0  0  0  0  0
   24.8784    7.2715    5.4999 O   0  0  0  0  0  0  0  0  0  0  0  0
 11 12  1  0  0  0
 12 15  1  0  0  0
 15 16  1  0  0  0
 12  7  1  0  0  0
  7  8  2  0  0  0
  7  9  1  0  0  0
  9  1  1  0  0  0
  1  2  2  0  0  0
  2  3  1  0  0  0
  3  4  2  0  0  0
  4  5  1  0  0  0
  5  6  2  0  0  0
  5 17  1  0  0  0
 17 18  1  0  0  0
 17 19  1  0  0  0
 17 20  1  0  0  0
  4 21  1  0  0  0
 21 22  2  0  0  0
 21 23  1  0  0  0
 12 13  1  0  0  0
  6  1  1  0  0  0
  9 10  1  0  0  0
 13 14  1  0  0  0
M  CHG 1  21   1
M  CHG 1  23  -1
M  END
> <minimizedAffinity>
-7.00661

$$$$



 23 23  0  0  0  0  0  0  0  0999 V2000
   27.2590    2.9696    4.5564 C   0  0  0  0  0  0  0  0  0  0  0  0
   28.5801    2.9679    4.2048 C   0  0  0  0  0  0  0  0  0  0  0  0
   29.2085    1.7313    4.0454 C   0  0  0  0  0  0  0  0  0  0  0  0
   28.5068    0.5430    4.2398 C   0  0  0  0  0  0  0  0  0  0  0  0
   27.1794    0.5479    4.5936 C   0  0  0  0  0  0  0  0  0  0  0  0
   26.5632    1.7660    4.7496 C   0  0  0  0  0  0  0  0  0  0  0  0
   26.2674    5.1375    3.7745 C   0  0  0  0  0  0  0  0  0  0  0  0
   26.6842    5.0507    2.6195 O   0  0  0  0  0  0  0  0  0  0  0  0
   26.5159    4.1629    4.7462 N   0  0  0  0  0  0  0  0  0  0  0  0
   26.0999    4.3557    5.7073 H   0  0  0  0  0  0  0  0  0  0  0  0
   26.3852    7.3872    4.7258 C   0  0  0  0  0  0  0  0  0  0  0  0
   25.4610    6.3433    4.1422 C   0  0  0  0  0  0  0  0  0  0  0  0
   24.8311    6.8639    3.0381 O   0  0  0  0  0  0  0  0  0  0  0  0
   23.8735    6.6114    2.9606 H   0  0  0  0  0  0  0  0  0  0  0  0
   24.4316    5.9675    5.1827 C   0  0  0  0  0  0  0  0  0  0  0  0
   23.2935    4.6177    4.4368 Br  0  0  0  0  0  0  0  0  0  0  0  0
   26.4428   -0.7226    4.8147 C   0  0  0  0  0  0  0  0  0  0  0  0
   25.1547   -0.3758    5.2461 F   0  0  0  0  0  0  0  0  0  0  0  0
   26.3323   -1.5147    3.7199 F   0  0  0  0  0  0  0  0  0  0  0  0
   26.9814   -1.3869    5.9308 F   0  0  0  0  0  0  0  0  0  0  0  0
   29.1606   -0.6997    4.0548 N   0  0  0  0  0  0  0  0  0  0  0  0
   29.7609   -1.3698    4.8756 O   0  0  0  0  0  0  0  0  0  0  0  0
   29.1122   -1.2245    2.7596 O   0  0  0  0  0  0  0  0  0  0  0  0
 11 12  1  0  0  0
 12 15  1  0  0  0
 15 16  1  0  0  0
 12  7  1  0  0  0
  7  8  2  0  0  0
  7  9  1  0  0  0
  9  1  1  0  0  0
  1  2  2  0  0  0
  2  3  1  0  0  0
  3  4  2  0  0  0
  4  5  1  0  0  0
  5  6  2  0  0  0
  5 17  1  0  0  0
 17 18  1  0  0  0
 17 19  1  0  0  0
 17 20  1  0  0  0
  4 21  1  0  0  0
 21 22  2  0  0  0
 21 23  1  0  0  0
 12 13  1  0  0  0
  6  1  1  0  0  0
  9 10  1  0  0  0
 13 14  1  0  0  0
M  CHG 1  21   1
M  CHG 1  23  -1
M  END
> <minimizedAffinity>
-6.82983

$$$$



 23 23  0  0  0  0  0  0  0  0999 V2000
   26.5918    2.5969    4.1494 C   0  0  0  0  0  0  0  0  0  0  0  0
   26.4577    1.8690    2.9999 C   0  0  0  0  0  0  0  0  0  0  0  0
   27.1338    0.6500    2.9202 C   0  0  0  0  0  0  0  0  0  0  0  0
   27.9170    0.1968    3.9800 C   0  0  0  0  0  0  0  0  0  0  0  0
   28.0503    0.9307    5.1336 C   0  0  0  0  0  0  0  0  0  0  0  0
   27.3838    2.1297    5.2097 C   0  0  0  0  0  0  0  0  0  0  0  0
   26.3323    5.0624    3.7644 C   0  0  0  0  0  0  0  0  0  0  0  0
   27.2911    5.1663    2.9995 O   0  0  0  0  0  0  0  0  0  0  0  0
   25.9530    3.8481    4.3454 N   0  0  0  0  0  0  0  0  0  0  0  0
   25.1058    3.8914    4.9891 H   0  0  0  0  0  0  0  0  0  0  0  0
   26.4884    7.3495    4.6156 C   0  0  0  0  0  0  0  0  0  0  0  0
   25.5465    6.2966    4.0785 C   0  0  0  0  0  0  0  0  0  0  0  0
   24.9248    6.7786    2.9523 O   0  0  0  0  0  0  0  0  0  0  0  0
   23.9631    6.5391    2.8858 H   0  0  0  0  0  0  0  0  0  0  0  0
   24.5114    5.9844    5.1343 C   0  0  0  0  0  0  0  0  0  0  0  0
   23.2561    4.7414    4.3911 Br  0  0  0  0  0  0  0  0  0  0  0  0
   28.8998    0.4483    6.2522 C   0  0  0  0  0  0  0  0  0  0  0  0
   28.8267    1.4158    7.2643 F   0  0  0  0  0  0  0  0  0  0  0  0
   28.5314   -0.7484    6.7721 F   0  0  0  0  0  0  0  0  0  0  0  0
   30.2513    0.4961    5.8669 F   0  0  0  0  0  0  0  0  0  0  0  0
   28.5792   -1.0515    3.8833 N   0  0  0  0  0  0  0  0  0  0  0  0
   29.7158   -1.2797    3.5104 O   0  0  0  0  0  0  0  0  0  0  0  0
   27.8285   -2.1683    4.2637 O   0  0  0  0  0  0  0  0  0  0  0  0
 11 12  1  0  0  0
 12 15  1  0  0  0
 15 16  1  0  0  0
 12  7  1  0  0  0
  7  8  2  0  0  0
  7  9  1  0  0  0
  9  1  1  0  0  0
  1  2  2  0  0  0
  2  3  1  0  0  0
  3  4  2  0  0  0
  4  5  1  0  0  0
  5  6  2  0  0  0
  5 17  1  0  0  0
 17 18  1  0  0  0
 17 19  1  0  0  0
 17 20  1  0  0  0
  4 21  1  0  0  0
 21 22  2  0  0  0
 21 23  1  0  0  0
 12 13  1  0  0  0
  6  1  1  0  0  0
  9 10  1  0  0  0
 13 14  1  0  0  0
M  CHG 1  21   1
M  CHG 1  23  -1
M  END
> <minimizedAffinity>
-6.80994

$$$$



 23 23  0  0  0  0  0  0  0  0999 V2000
   26.2054    2.4088    4.1056 C   0  0  0  0  0  0  0  0  0  0  0  0
   26.1368    1.7421    2.9141 C   0  0  0  0  0  0  0  0  0  0  0  0
   26.9328    0.6055    2.7588 C   0  0  0  0  0  0  0  0  0  0  0  0
   27.7666    0.1712    3.7875 C   0  0  0  0  0  0  0  0  0  0  0  0
   27.8339    0.8437    4.9835 C   0  0  0  0  0  0  0  0  0  0  0  0
   27.0494    1.9616    5.1340 C   0  0  0  0  0  0  0  0  0  0  0  0
   25.7639    4.8752    3.9780 C   0  0  0  0  0  0  0  0  0  0  0  0
   26.7726    5.1444    3.3258 O   0  0  0  0  0  0  0  0  0  0  0  0
   25.4442    3.5741    4.3789 N   0  0  0  0  0  0  0  0  0  0  0  0
   24.5437    3.4739    4.9385 H   0  0  0  0  0  0  0  0  0  0  0  0
   24.3479    6.6593    3.0881 C   0  0  0  0  0  0  0  0  0  0  0  0
   24.8481    5.9981    4.3518 C   0  0  0  0  0  0  0  0  0  0  0  0
   23.7758    5.5331    5.0735 O   0  0  0  0  0  0  0  0  0  0  0  0
   23.8589    5.6654    6.0545 H   0  0  0  0  0  0  0  0  0  0  0  0
   25.6046    7.0193    5.1695 C   0  0  0  0  0  0  0  0  0  0  0  0
   25.8488    8.5853    4.0917 Br  0  0  0  0  0  0  0  0  0  0  0  0
   28.7370    0.3837    6.0690 C   0  0  0  0  0  0  0  0  0  0  0  0
   28.2213   -0.8326    6.5386 F   0  0  0  0  0  0  0  0  0  0  0  0
   30.0254    0.1898    5.6940 F   0  0  0  0  0  0  0  0  0  0  0  0
   28.6023    1.2339    7.1808 F   0  0  0  0  0  0  0  0  0  0  0  0
   28.5516   -0.9948    3.6135 N   0  0  0  0  0  0  0  0  0  0  0  0
   29.6725   -1.0913    3.1473 O   0  0  0  0  0  0  0  0  0  0  0  0
   27.9610   -2.1921    4.0295 O   0  0  0  0  0  0  0  0  0  0  0  0
 11 12  1  0  0  0
 12 15  1  0  0  0
 15 16  1  0  0  0
 12  7  1  0  0  0
  7  8  2  0  0  0
  7  9  1  0  0  0
  9  1  1  0  0  0
  1  2  2  0  0  0
  2  3  1  0  0  0
  3  4  2  0  0  0
  4  5  1  0  0  0
  5  6  2  0  0  0
  5 17  1  0  0  0
 17 18  1  0  0  0
 17 19  1  0  0  0
 17 20  1  0  0  0
  4 21  1  0  0  0
 21 22  2  0  0  0
 21 23  1  0  0  0
 12 13  1  0  0  0
  6  1  1  0  0  0
  9 10  1  0  0  0
 13 14  1  0  0  0
M  CHG 1  21   1
M  CHG 1  23  -1
M  END
> <minimizedAffinity>
-6.29075

$$$$



 23 23  0  0  0  0  0  0  0  0999 V2000
   27.3348    1.4329    4.4893 C   0  0  0  0  0  0  0  0  0  0  0  0
   27.7049    0.8303    5.6593 C   0  0  0  0  0  0  0  0  0  0  0  0
   28.5102   -0.3074    5.5779 C   0  0  0  0  0  0  0  0  0  0  0  0
   28.9190   -0.8064    4.3426 C   0  0  0  0  0  0  0  0  0  0  0  0
   28.5450   -0.1991    3.1685 C   0  0  0  0  0  0  0  0  0  0  0  0
   27.7528    0.9204    3.2513 C   0  0  0  0  0  0  0  0  0  0  0  0
   26.9741    3.9101    4.3246 C   0  0  0  0  0  0  0  0  0  0  0  0
   28.1674    4.2000    4.2388 O   0  0  0  0  0  0  0  0  0  0  0  0
   26.5200    2.5931    4.4469 N   0  0  0  0  0  0  0  0  0  0  0  0
   25.4636    2.4755    4.5123 H   0  0  0  0  0  0  0  0  0  0  0  0
   26.6797    6.3170    4.6411 C   0  0  0  0  0  0  0  0  0  0  0  0
   25.9760    5.0248    4.2957 C   0  0  0  0  0  0  0  0  0  0  0  0
   25.4079    5.1385    3.0502 O   0  0  0  0  0  0  0  0  0  0  0  0
   24.5080    4.7247    2.9755 H   0  0  0  0  0  0  0  0  0  0  0  0
   24.8979    4.7674    5.3228 C   0  0  0  0  0  0  0  0  0  0  0  0
   23.2156    4.6648    4.4102 Br  0  0  0  0  0  0  0  0  0  0  0  0
   28.9715   -0.7465    1.8555 C   0  0  0  0  0  0  0  0  0  0  0  0
   28.0849   -0.2378    0.8959 F   0  0  0  0  0  0  0  0  0  0  0  0
   30.2361   -0.4243    1.4879 F   0  0  0  0  0  0  0  0  0  0  0  0
   28.7160   -2.1287    1.8201 F   0  0  0  0  0  0  0  0  0  0  0  0
   29.7505   -1.9515    4.2855 N   0  0  0  0  0  0  0  0  0  0  0  0
   30.9665   -2.0039    4.2426 O   0  0  0  0  0  0  0  0  0  0  0  0
   29.0883   -3.1831    4.2748 O   0  0  0  0  0  0  0  0  0  0  0  0
 11 12  1  0  0  0
 12 15  1  0  0  0
 15 16  1  0  0  0
 12  7  1  0  0  0
  7  8  2  0  0  0
  7  9  1  0  0  0
  9  1  1  0  0  0
  1  2  2  0  0  0
  2  3  1  0  0  0
  3  4  2  0  0  0
  4  5  1  0  0  0
  5  6  2  0  0  0
  5 17  1  0  0  0
 17 18  1  0  0  0
 17 19  1  0  0  0
 17 20  1  0  0  0
  4 21  1  0  0  0
 21 22  2  0  0  0
 21 23  1  0  0  0
 12 13  1  0  0  0
  6  1  1  0  0  0
  9 10  1  0  0  0
 13 14  1  0  0  0
M  CHG 1  21   1
M  CHG 1  23  -1
M  END
> <minimizedAffinity>
-5.89524

$$$$



 23 23  0  0  0  0  0  0  0  0999 V2000
   27.1057    1.0205    4.2351 C   0  0  0  0  0  0  0  0  0  0  0  0
   27.3937    0.3911    5.4140 C   0  0  0  0  0  0  0  0  0  0  0  0
   28.2299   -0.7261    5.3669 C   0  0  0  0  0  0  0  0  0  0  0  0
   28.7496   -1.1788    4.1556 C   0  0  0  0  0  0  0  0  0  0  0  0
   28.4580   -0.5446    2.9724 C   0  0  0  0  0  0  0  0  0  0  0  0
   27.6352    0.5546    3.0216 C   0  0  0  0  0  0  0  0  0  0  0  0
   26.6436    3.4754    4.4675 C   0  0  0  0  0  0  0  0  0  0  0  0
   27.7749    3.7753    4.8488 O   0  0  0  0  0  0  0  0  0  0  0  0
   26.2695    2.1637    4.1587 N   0  0  0  0  0  0  0  0  0  0  0  0
   25.2615    2.0363    3.8398 H   0  0  0  0  0  0  0  0  0  0  0  0
   24.2650    3.9536    4.1611 C   0  0  0  0  0  0  0  0  0  0  0  0
   25.6336    4.5715    4.3327 C   0  0  0  0  0  0  0  0  0  0  0  0
   25.6312    5.3723    5.4487 O   0  0  0  0  0  0  0  0  0  0  0  0
   26.1334    6.2223    5.3393 H   0  0  0  0  0  0  0  0  0  0  0  0
   25.9487    5.4046    3.1119 C   0  0  0  0  0  0  0  0  0  0  0  0
   25.2521    7.1675    3.3958 Br  0  0  0  0  0  0  0  0  0  0  0  0
   29.0028   -1.0430    1.6839 C   0  0  0  0  0  0  0  0  0  0  0  0
   30.2700   -0.4637    1.5275 F   0  0  0  0  0  0  0  0  0  0  0  0
   29.1314   -2.3902    1.6030 F   0  0  0  0  0  0  0  0  0  0  0  0
   28.2688   -0.4885    0.6205 F   0  0  0  0  0  0  0  0  0  0  0  0
   29.6101   -2.3035    4.1347 N   0  0  0  0  0  0  0  0  0  0  0  0
   29.3143   -3.4832    4.0715 O   0  0  0  0  0  0  0  0  0  0  0  0
   30.9785   -2.0225    4.1968 O   0  0  0  0  0  0  0  0  0  0  0  0
 11 12  1  0  0  0
 12 15  1  0  0  0
 15 16  1  0  0  0
 12  7  1  0  0  0
  7  8  2  0  0  0
  7  9  1  0  0  0
  9  1  1  0  0  0
  1  2  2  0  0  0
  2  3  1  0  0  0
  3  4  2  0  0  0
  4  5  1  0  0  0
  5  6  2  0  0  0
  5 17  1  0  0  0
 17 18  1  0  0  0
 17 19  1  0  0  0
 17 20  1  0  0  0
  4 21  1  0  0  0
 21 22  2  0  0  0
 21 23  1  0  0  0
 12 13  1  0  0  0
  6  1  1  0  0  0
  9 10  1  0  0  0
 13 14  1  0  0  0
M  CHG 1  21   1
M  CHG 1  23  -1
M  END
> <minimizedAffinity>
-5.73336

$$$$
