2PNU_EM-5744 - preprocessed
                    3D
 Schrodinger Suite 2021-1.
 68 72  0  0  1  0            999 V2000
   30.6927    2.2976   11.7706 C   0  0  0  0  0  0
   30.1747    2.3830   13.0827 C   0  0  0  0  0  0
   30.4810    3.4420   13.8755 F   0  0  0  0  0  0
   29.3056    1.3924   13.5621 C   0  0  0  0  0  0
   28.9476    0.3165   12.7363 C   0  0  0  0  0  0
   28.0791   -0.6144   13.1849 F   0  0  0  0  0  0
   29.4596    0.2262   11.4332 C   0  0  0  0  0  0
   30.3277    1.2166   10.9438 C   0  0  0  0  0  0
   30.7475    1.1571    9.6160 C   0  0  0  0  0  0
   29.8938    0.4921    8.6737 O   0  0  0  0  0  0
   30.2836    0.7341    7.3184 C   0  0  0  0  0  0
   29.1537    0.1630    6.4409 C   0  0  0  0  0  0
   29.3385    0.4760    4.9120 C   0  0  2  0  0  0
   29.9073    1.8922    4.6588 C   0  0  0  0  0  0
   28.8994    2.9633    5.1880 C   0  0  0  0  0  0
   27.4924    2.7999    4.5249 C   0  0  2  0  0  0
   26.4577    3.8779    4.9869 C   0  0  1  0  0  0
   26.2128    3.7664    6.5174 C   0  0  0  0  0  0
   27.0109    5.2950    4.6466 C   0  0  0  0  0  0
   25.9972    6.4246    4.9571 C   0  0  0  0  0  0
   24.6346    6.1179    4.3208 C   0  0  0  0  0  0
   24.0353    6.9821    3.6788 O   0  0  0  0  0  0
   24.0440    4.7106    4.4848 C   0  0  0  0  0  0
   25.1250    3.6458    4.1899 C   0  0  2  0  0  0
   24.5633    2.2254    4.4182 C   0  0  0  0  0  0
   25.5907    1.1705    3.9689 C   0  0  0  0  0  0
   26.9393    1.3412    4.7177 C   0  0  1  0  0  0
   27.9993    0.3596    4.1787 C   0  0  2  0  0  0
   27.6651   -1.1326    4.2227 C   0  0  0  0  0  0
   29.0508   -1.8021    4.0237 C   0  0  0  0  0  0
   30.0927   -0.6653    4.2216 C   0  0  2  0  0  0
   31.2285   -1.1169    4.9703 O   0  0  0  0  0  0
   31.3656    3.0592   11.4051 H   0  0  0  0  0  0
   28.9128    1.4584   14.5659 H   0  0  0  0  0  0
   29.1868   -0.6069   10.8023 H   0  0  0  0  0  0
   31.7411    0.7109    9.5750 H   0  0  0  0  0  0
   30.9538    2.1668    9.2608 H   0  0  0  0  0  0
   31.2106    0.2007    7.1076 H   0  0  0  0  0  0
   30.3644    1.8081    7.1511 H   0  0  0  0  0  0
   28.1968    0.5610    6.7788 H   0  0  0  0  0  0
   29.0937   -0.9158    6.5848 H   0  0  0  0  0  0
   30.0613    2.0357    3.5894 H   0  0  0  0  0  0
   30.8585    2.0000    5.1801 H   0  0  0  0  0  0
   29.2860    3.9604    4.9777 H   0  0  0  0  0  0
   28.8039    2.8684    6.2697 H   0  0  0  0  0  0
   27.6337    2.9414    3.4534 H   0  0  0  0  0  0
   25.4907    4.5221    6.8264 H   0  0  0  0  0  0
   25.8240    2.7756    6.7524 H   0  0  0  0  0  0
   27.1517    3.9230    7.0484 H   0  0  0  0  0  0
   27.2843    5.3335    3.5922 H   0  0  0  0  0  0
   27.9298    5.4691    5.2063 H   0  0  0  0  0  0
   26.3757    7.3693    4.5668 H   0  0  0  0  0  0
   25.8803    6.5208    6.0366 H   0  0  0  0  0  0
   23.2111    4.5835    3.7933 H   0  0  0  0  0  0
   23.6805    4.5860    5.5048 H   0  0  0  0  0  0
   25.3695    3.7252    3.1306 H   0  0  0  0  0  0
   23.6433    2.1027    3.8467 H   0  0  0  0  0  0
   24.3415    2.0885    5.4766 H   0  0  0  0  0  0
   25.7578    1.2608    2.8956 H   0  0  0  0  0  0
   25.1938    0.1733    4.1592 H   0  0  0  0  0  0
   26.7852    1.1540    5.7804 H   0  0  0  0  0  0
   28.1790    0.6194    3.1355 H   0  0  0  0  0  0
   27.0212   -1.3817    3.3793 H   0  0  0  0  0  0
   27.2821   -1.3861    5.2112 H   0  0  0  0  0  0
   29.1239   -2.1868    3.0065 H   0  0  0  0  0  0
   29.1974   -2.5644    4.7889 H   0  0  0  0  0  0
   30.4299   -0.3230    3.2432 H   0  0  0  0  0  0
   31.6629   -1.8291    4.4952 H   0  0  0  0  0  0
  1  2  2  0  0  0
  1  8  1  0  0  0
  1 33  1  0  0  0
  2  3  1  0  0  0
  2  4  1  0  0  0
  4  5  2  0  0  0
  4 34  1  0  0  0
  5  6  1  0  0  0
  5  7  1  0  0  0
  7  8  2  0  0  0
  7 35  1  0  0  0
  8  9  1  0  0  0
  9 10  1  0  0  0
  9 36  1  0  0  0
  9 37  1  0  0  0
 10 11  1  0  0  0
 11 12  1  0  0  0
 11 38  1  0  0  0
 11 39  1  0  0  0
 12 13  1  0  0  0
 12 40  1  0  0  0
 12 41  1  0  0  0
 13 14  1  0  0  0
 13 28  1  0  0  0
 13 31  1  0  0  0
 14 15  1  0  0  0
 14 42  1  0  0  0
 14 43  1  0  0  0
 15 16  1  0  0  0
 15 44  1  0  0  0
 15 45  1  0  0  0
 16 17  1  0  0  0
 16 27  1  0  0  0
 16 46  1  0  0  0
 17 18  1  0  0  0
 17 19  1  0  0  0
 17 24  1  0  0  0
 18 47  1  0  0  0
 18 48  1  0  0  0
 18 49  1  0  0  0
 19 20  1  0  0  0
 19 50  1  0  0  0
 19 51  1  0  0  0
 20 21  1  0  0  0
 20 52  1  0  0  0
 20 53  1  0  0  0
 21 22  2  0  0  0
 21 23  1  0  0  0
 23 24  1  0  0  0
 23 54  1  0  0  0
 23 55  1  0  0  0
 24 25  1  0  0  0
 24 56  1  0  0  0
 25 26  1  0  0  0
 25 57  1  0  0  0
 25 58  1  0  0  0
 26 27  1  0  0  0
 26 59  1  0  0  0
 26 60  1  0  0  0
 27 28  1  0  0  0
 27 61  1  0  0  0
 28 29  1  0  0  0
 28 62  1  0  0  0
 29 30  1  0  0  0
 29 63  1  0  0  0
 29 64  1  0  0  0
 30 31  1  0  0  0
 30 65  1  0  0  0
 30 66  1  0  0  0
 31 32  1  0  0  0
 31 67  1  0  0  0
 32 68  1  0  0  0
M  END
> <i_m_stars>
0

> <s_m_entry_id>
20

> <s_m_entry_name>
Structure14

> <s_pdb_PDB_TITLE>
CRYSTAL STRUCTURE OF HUMAN ANDROGEN RECEPTOR LIGAND-BINDING DOMAIN IN COMPLEX WITH EM-5744

> <s_pdb_PDB_ID>
2PNU

> <r_pdb_PDB_CRYST1_a>
53.65

> <r_pdb_PDB_CRYST1_b>
66.36

> <r_pdb_PDB_CRYST1_c>
70.78

> <r_pdb_PDB_CRYST1_alpha>
90

> <r_pdb_PDB_CRYST1_beta>
90

> <r_pdb_PDB_CRYST1_gamma>
90

> <s_pdb_PDB_CRYST1_Space_Group>
P 21 21 21

> <i_pdb_PDB_CRYST1_z>
4

> <s_pdb_PDB_CLASSIFICATION>
HORMONE/GENE REGULATION

> <s_pdb_PDB_DEPOSITION_DATE>
25-APR-07

> <s_pdb_PDB_format_version>
3.15

> <r_pdb_PDB_R>
0.183

> <r_pdb_PDB_Rfree>
0.205

> <r_pdb_PDB_RESOLUTION>
1.65

> <s_pdb_PDB_EXPDTA>
X-RAY DIFFRACTION

> <r_pdb_PDB_EXPDTA_TEMPERATURE>
100

> <r_pdb_PDB_EXPDTA_PH>
6

> <s_pdb_PDB_REMARK_350_Biomolecule_1_Transform_1_Chains>
A

> <s_pdb_PDB_REMARK_350_Biomolecule_1_Transform_1_Matrix_1>
1.000000 0.000000 0.000000   0.000000;0.000000 1.000000 0.000000   0.000000;0.000000 0.000000 1.000000   0.000000

> <s_m_Source_Path>
/home/unibas/Dropbox/Studium/PhD/Documents/teaching/MMiDD/github/MolecularDocking/tmp

> <s_m_Source_File>
2PNU.pdb

> <i_m_Source_File_Index>
1

> <s_ppw_entry_id_backup>
14

> <b_ppw_prepared>
1

> <s_ppw_prepared_with_version>
2021-1

> <b_ppw_assigned_bond_orders>
1

> <b_ppw_added_hydrogens>
1

> <s_ppw_het_states>
eJxNkT1zgzAQRP+KhhonuhWYD3ep3GZSeigYx1UIpCBFxuP/bp3mVpEL71vAT8f5Xkk1ukv8SO38VLsLLINlY9laHi07y95ysBRPoFGoFDqFUqFVqBV6hWKhGTQjz0ozaAbNoBk0g2bQDJoDzYHmkMxKuphYkEapXfyt2JrCPzaGMVt7NubRrkbsDLtkgC1usKua3jiBsCiARYGHJmiKgr4oIQv0kZZFgUMl6IqCXBT6sgxFQT40XgWnVgAPVQB3lkpeVSgECuBsCuBsKMdRyC+nAI6jEDiBQn5thZD2FtvBv8R790f8RxWqj33eb+7nts7L/jem2959Xefl9XtbTu58eNvWT3fdftd9dP7k3uN3NU2PJ9VirOA=

$$$$
